
  OWA STORM WATER MANAGEMENT MODEL - VERSION v5.2.3 (OWA 2023-03-28)
  ------------------------------------------------------------

  
  ****************
  Analysis Options
  ****************
  Flow Units ............... CFS
  Process Models:
    Rainfall/Runoff ........ YES
    RDII ................... NO
    Snowmelt ............... NO
    Groundwater ............ NO
    Flow Routing ........... YES
    Ponding Allowed ........ NO
    Water Quality .......... NO
  Infiltration Method ...... HORTON
  Flow Routing Method ...... DYNWAVE
  Surcharge Method ......... EXTRAN
  Starting Date ............ 10/17/2020 00:00:00
  Ending Date .............. 11/16/2020 23:55:00
  Antecedent Dry Days ...... 0.0
  Report Time Step ......... 00:05:00
  Wet Time Step ............ 00:01:00
  Dry Time Step ............ 00:05:00
  Routing Time Step ........ 30.00 sec
  Variable Time Step ....... YES
  Maximum Trials ........... 8
  Number of Threads ........ 1
  Head Tolerance ........... 0.005000 ft
  
  
  **************************        Volume         Depth
  Runoff Quantity Continuity     acre-feet        inches
  **************************     ---------       -------
  Total Precipitation ......       283.978         1.191
  Evaporation Loss .........         0.000         0.000
  Infiltration Loss ........       205.063         0.860
  Surface Runoff ...........        76.302         0.320
  Final Storage ............         2.614         0.011
  Continuity Error (%) .....        -0.000
  
  
  **************************        Volume        Volume
  Flow Routing Continuity        acre-feet      10^6 gal
  **************************     ---------     ---------
  Dry Weather Inflow .......         0.000         0.000
  Wet Weather Inflow .......        76.301        24.864
  Groundwater Inflow .......         0.000         0.000
  RDII Inflow ..............         0.000         0.000
  External Inflow ..........         0.000         0.000
  External Outflow .........        74.134        24.158
  Flooding Loss ............         0.000         0.000
  Evaporation Loss .........         0.000         0.000
  Exfiltration Loss ........         2.164         0.705
  Initial Stored Volume ....         0.000         0.000
  Final Stored Volume ......         0.005         0.001
  Continuity Error (%) .....        -0.001
  
  
  ***************************
  Time-Step Critical Elements
  ***************************
  Link 10 (12.76%)
  
  
  ********************************
  Highest Flow Instability Indexes
  ********************************
  All links are stable.
  
  
  *********************************
  Most Frequent Nonconverging Nodes
  *********************************
  Convergence obtained at all time steps.
  
  
  *************************
  Routing Time Step Summary
  *************************
  Minimum Time Step           :     3.91 sec
  Average Time Step           :    29.39 sec
  Maximum Time Step           :    30.00 sec
  % of Time in Steady State   :     0.00
  Average Iterations per Step :     2.00
  % of Steps Not Converging   :     0.00
  Time Step Frequencies       :
     30.000 - 13.228 sec      :   100.00 %
     13.228 -  5.833 sec      :     0.00 %
      5.833 -  2.572 sec      :     0.00 %
      2.572 -  1.134 sec      :     0.00 %
      1.134 -  0.500 sec      :     0.00 %
  
  
  ***************************
  Subcatchment Runoff Summary
  ***************************
  
  ------------------------------------------------------------------------------------------------------------------------------
                            Total      Total      Total      Total     Imperv       Perv      Total       Total     Peak  Runoff
                           Precip      Runon       Evap      Infil     Runoff     Runoff     Runoff      Runoff   Runoff   Coeff
  Subcatchment                 in         in         in         in         in         in         in    10^6 gal      CFS
  ------------------------------------------------------------------------------------------------------------------------------
  1                          1.19       0.00       0.00       0.89       0.29       0.00       0.29        1.57     1.71   0.242
  2                          1.19       0.00       0.00       1.07       0.12       0.00       0.12        0.94     1.07   0.097
  3                          1.19       0.00       0.00       0.60       0.58       0.00       0.58        4.44     4.30   0.483
  4                          1.19       0.00       0.00       0.83       0.35       0.00       0.35        2.16     2.27   0.290
  5                          1.19       0.00       0.00       0.89       0.29       0.00       0.29        2.66     2.73   0.242
  6                          1.19       0.00       0.00       1.13       0.06       0.00       0.06        0.20     0.27   0.048
  7                          1.19       0.00       0.00       0.83       0.35       0.00       0.35        0.95     1.08   0.290
  8                          1.19       0.00       0.00       0.48       0.69       0.00       0.69        3.19     3.20   0.580
  9                          1.19       0.00       0.00       0.89       0.29       0.00       0.29        2.27     2.38   0.242
  10                         1.19       0.00       0.00       1.07       0.12       0.00       0.12        1.56     1.70   0.097
  11                         1.19       0.00       0.00       0.60       0.58       0.00       0.58        4.92     4.70   0.483
  
  
  ******************
  Node Depth Summary
  ******************
  
  ---------------------------------------------------------------------------------
                                 Average  Maximum  Maximum  Time of Max    Reported
                                   Depth    Depth      HGL   Occurrence   Max Depth
  Node                 Type         Feet     Feet     Feet  days hr:min        Feet
  ---------------------------------------------------------------------------------
  15                   JUNCTION     0.03     0.33   132.33     3  16:30        0.33
  16                   JUNCTION     0.07     0.43   200.43     3  16:25        0.43
  18                   JUNCTION     0.19     1.20   121.20     3  16:37        1.20
  19                   JUNCTION     0.06     0.38   128.38     3  16:25        0.38
  20                   JUNCTION     0.13     0.80   102.80     3  17:26        0.79
  12                   JUNCTION     0.19     1.09   169.09     3  17:28        1.09
  13                   JUNCTION     0.13     0.73   152.73     3  17:31        0.73
  14                   JUNCTION     0.15     0.91    94.91     3  17:25        0.91
  17                   OUTFALL      0.15     0.91    86.91     3  17:26        0.91
  21                   STORAGE      1.39     3.30   144.30     3  16:27        3.30
  
  
  *******************
  Node Inflow Summary
  *******************
  
  -------------------------------------------------------------------------------------------------
                                  Maximum  Maximum                  Lateral       Total        Flow
                                  Lateral    Total  Time of Max      Inflow      Inflow     Balance
                                   Inflow   Inflow   Occurrence      Volume      Volume       Error
  Node                 Type           CFS      CFS  days hr:min    10^6 gal    10^6 gal     Percent
  -------------------------------------------------------------------------------------------------
  15                   JUNCTION      0.00     1.60     3  16:27           0       0.869       0.106
  16                   JUNCTION      5.56     5.56     3  16:25        5.58        5.58      -0.003
  18                   JUNCTION      6.09    12.84     3  16:25        5.77        12.2      -0.003
  19                   JUNCTION      5.58     5.58     3  16:25        5.46        5.46      -0.001
  20                   JUNCTION      6.34    18.91     3  17:25        6.49        18.7       0.001
  12                   JUNCTION      0.00     5.53     3  16:25           0        5.58       0.005
  13                   JUNCTION      0.00     5.42     3  17:29           0        5.58       0.006
  14                   JUNCTION      0.00    24.39     3  17:25           0        24.2       0.001
  17                   OUTFALL       0.00    24.40     3  17:26           0        24.2       0.000
  21                   STORAGE       1.71     1.71     3  16:25        1.57        1.57      -0.008
  
  
  **********************
  Node Surcharge Summary
  **********************
  
  No nodes were surcharged.
  
  
  *********************
  Node Flooding Summary
  *********************
  
  No nodes were flooded.
  
  
  **********************
  Storage Volume Summary
  **********************
  
  ------------------------------------------------------------------------------------------------
                         Average    Avg   Evap  Exfil     Maximum    Max    Time of Max    Maximum
                          Volume   Pcnt   Pcnt   Pcnt      Volume   Pcnt     Occurrence    Outflow
  Storage Unit          1000 ft³   Full   Loss   Loss    1000 ft³   Full    days hr:min        CFS
  ------------------------------------------------------------------------------------------------
  21                       3.467   34.7    0.0   44.8       8.258   82.6       3  16:27       1.66
  
  
  ***********************
  Outfall Loading Summary
  ***********************
  
  -----------------------------------------------------------
                         Flow       Avg       Max       Total
                         Freq      Flow      Flow      Volume
  Outfall Node           Pcnt       CFS       CFS    10^6 gal
  -----------------------------------------------------------
  17                    90.47      1.57     24.40      24.156
  -----------------------------------------------------------
  System                90.47      1.57     24.40      24.156
  
  
  ********************
  Link Flow Summary
  ********************
  
  -----------------------------------------------------------------------------
                                 Maximum  Time of Max   Maximum    Max/    Max/
                                  |Flow|   Occurrence   |Veloc|    Full    Full
  Link                 Type          CFS  days hr:min    ft/sec    Flow   Depth
  -----------------------------------------------------------------------------
  1                    CONDUIT      1.58     3  16:30      1.14    0.03    0.25
  2                    CONDUIT     12.67     3  16:37      6.18    0.30    0.33
  5                    CONDUIT      5.53     3  16:25      3.97    0.04    0.25
  6                    CONDUIT      5.42     3  17:29      3.01    0.22    0.30
  7                    CONDUIT      5.40     3  17:31      2.77    0.13    0.32
  8                    CONDUIT     18.89     3  17:26     11.45    0.15    0.28
  9                    CONDUIT      5.58     3  16:25      7.74    0.14    0.43
  10                   CONDUIT     24.40     3  17:26     13.52    0.20    0.30
  11                   CONDUIT      1.60     3  16:27      7.58    0.20    0.32
  
  
  ***************************
  Flow Classification Summary
  ***************************
  
  -------------------------------------------------------------------------------------
                      Adjusted    ---------- Fraction of Time in Flow Class ---------- 
                       /Actual         Up    Down  Sub   Sup   Up    Down  Norm  Inlet 
  Conduit               Length    Dry  Dry   Dry   Crit  Crit  Crit  Crit  Ltd   Ctrl  
  -------------------------------------------------------------------------------------
  1                       1.00   0.10  0.63  0.00  0.27  0.00  0.00  0.00  0.89  0.00
  2                       1.00   0.10  0.00  0.00  0.48  0.42  0.00  0.00  0.00  0.00
  5                       1.00   0.10  0.00  0.00  0.90  0.00  0.00  0.00  0.90  0.00
  6                       1.00   0.10  0.00  0.00  0.90  0.00  0.00  0.00  0.00  0.00
  7                       1.00   0.10  0.00  0.00  0.90  0.00  0.00  0.00  0.90  0.00
  8                       1.00   0.10  0.00  0.00  0.03  0.87  0.00  0.00  0.90  0.00
  9                       1.00   0.10  0.00  0.00  0.14  0.76  0.00  0.00  0.90  0.00
  10                      1.00   0.10  0.00  0.00  0.00  0.90  0.00  0.00  0.21  0.00
  11                      1.00   0.73  0.05  0.00  0.00  0.22  0.00  0.00  0.88  0.00
  
  
  *************************
  Conduit Surcharge Summary
  *************************
  
  No conduits were surcharged.
  

  Analysis begun on:  Mon Oct 16 16:32:18 2023
  Analysis ended on:  Mon Oct 16 16:32:20 2023
  Total elapsed time: 00:00:02