
  OWA STORM WATER MANAGEMENT MODEL - VERSION v5.2.3 (OWA 2023-03-28)
  ------------------------------------------------------------

  WARNING 02: maximum depth increased for Node 20

  Analysis begun on:  Tue Aug 29 11:54:16 2023
  Analysis ended on:  Tue Aug 29 11:54:16 2023
  Total elapsed time: < 1 sec