
  EPA STORM WATER MANAGEMENT MODEL - VERSION 5.2 (Build 5.2.4)
  ------------------------------------------------------------

  WARNING 04: minimum elevation drop used for Conduit 57
  WARNING 04: minimum elevation drop used for Conduit 58
  WARNING 04: minimum elevation drop used for Conduit 59
  WARNING 04: minimum elevation drop used for Conduit 60
  WARNING 04: minimum elevation drop used for Conduit 61
  WARNING 04: minimum elevation drop used for Conduit 62
  WARNING 04: minimum elevation drop used for Conduit 63
  WARNING 04: minimum elevation drop used for Conduit 64
  WARNING 04: minimum elevation drop used for Conduit 65
  WARNING 04: minimum elevation drop used for Conduit 66
  
  ****************
  Analysis Options
  ****************
  Flow Units ............... CFS
  Process Models:
    Rainfall/Runoff ........ NO
    RDII ................... NO
    Snowmelt ............... NO
    Groundwater ............ NO
    Flow Routing ........... YES
    Ponding Allowed ........ NO
    Water Quality .......... NO
  Flow Routing Method ...... DYNWAVE
  Surcharge Method ......... EXTRAN
  Starting Date ............ 01/01/2024 00:00:00
  Ending Date .............. 01/01/2024 00:02:00
  Antecedent Dry Days ...... 0.0
  Report Time Step ......... 00:00:01
  Routing Time Step ........ 0.01 sec
  Variable Time Step ....... NO
  Maximum Trials ........... 10
  Number of Threads ........ 1
  Head Tolerance ........... 0.000500 ft
  
  
  **************************        Volume        Volume
  Flow Routing Continuity        acre-feet      10^6 gal
  **************************     ---------     ---------
  Dry Weather Inflow .......         0.000         0.000
  Wet Weather Inflow .......         0.000         0.000
  Groundwater Inflow .......         0.000         0.000
  RDII Inflow ..............         0.000         0.000
  External Inflow ..........         0.000         0.000
  External Outflow .........         0.000         0.000
  Flooding Loss ............         0.000         0.000
  Evaporation Loss .........         0.000         0.000
  Exfiltration Loss ........         0.000         0.000
  Initial Stored Volume ....         0.000         0.000
  Final Stored Volume ......         0.000         0.000
  Continuity Error (%) .....         0.000
  
  
  *************************
  Highest Continuity Errors
  *************************
  Node 8 (1.28%)
  Node 47 (1.28%)
  Node 49 (1.27%)
  Node 46 (1.26%)
  Node 48 (1.26%)
  
  
  ********************************
  Highest Flow Instability Indexes
  ********************************
  All links are stable.
  
  
  *********************************
  Most Frequent Nonconverging Nodes
  *********************************
  Convergence obtained at all time steps.
  
  
  *************************
  Routing Time Step Summary
  *************************
  Minimum Time Step           :     0.01 sec
  Average Time Step           :     0.01 sec
  Maximum Time Step           :     0.01 sec
  % of Time in Steady State   :     0.00
  Average Iterations per Step :     2.00
  % of Steps Not Converging   :     0.00
  
  
  ******************
  Node Depth Summary
  ******************
  
  ---------------------------------------------------------------------------------
                                 Average  Maximum  Maximum  Time of Max    Reported
                                   Depth    Depth      HGL   Occurrence   Max Depth
  Node                 Type         Feet     Feet     Feet  days hr:min        Feet
  ---------------------------------------------------------------------------------
  1                    JUNCTION     0.01     0.04     2.19     0  00:00        0.04
  2                    JUNCTION     0.01     0.02     2.72     0  00:00        0.02
  3                    JUNCTION     0.02     0.25     3.00     0  00:00        0.23
  4                    JUNCTION     0.01     0.20     3.32     0  00:00        0.15
  5                    JUNCTION     0.01     0.15     3.58     0  00:00        0.13
  6                    JUNCTION     0.01     0.06     4.02     0  00:00        0.06
  7                    JUNCTION     0.02     0.05     2.77     0  00:00        0.05
  8                    JUNCTION     0.03     0.08     2.81     0  00:00        0.08
  10                   JUNCTION     0.01     0.06     3.97     0  00:00        0.06
  11                   JUNCTION     0.01     0.07     3.93     0  00:00        0.06
  12                   JUNCTION     0.01     0.08     3.88     0  00:00        0.08
  13                   JUNCTION     0.01     0.09     3.84     0  00:00        0.07
  14                   JUNCTION     0.01     0.10     3.79     0  00:00        0.09
  15                   JUNCTION     0.01     0.11     3.75     0  00:00        0.09
  16                   JUNCTION     0.01     0.12     3.70     0  00:00        0.10
  17                   JUNCTION     0.01     0.12     3.66     0  00:00        0.11
  18                   JUNCTION     0.01     0.13     3.62     0  00:00        0.11
  19                   JUNCTION     0.01     0.15     3.55     0  00:00        0.12
  20                   JUNCTION     0.01     0.16     3.52     0  00:00        0.14
  21                   JUNCTION     0.01     0.16     3.50     0  00:00        0.12
  22                   JUNCTION     0.01     0.17     3.47     0  00:00        0.15
  23                   JUNCTION     0.01     0.17     3.45     0  00:00        0.13
  24                   JUNCTION     0.01     0.18     3.42     0  00:00        0.16
  25                   JUNCTION     0.01     0.19     3.40     0  00:00        0.14
  26                   JUNCTION     0.01     0.19     3.37     0  00:00        0.16
  27                   JUNCTION     0.01     0.20     3.35     0  00:00        0.16
  28                   JUNCTION     0.01     0.20     3.29     0  00:00        0.18
  29                   JUNCTION     0.01     0.21     3.26     0  00:00        0.12
  30                   JUNCTION     0.01     0.21     3.22     0  00:00        0.21
  31                   JUNCTION     0.01     0.22     3.19     0  00:00        0.09
  32                   JUNCTION     0.01     0.22     3.15     0  00:00        0.21
  33                   JUNCTION     0.01     0.22     3.12     0  00:00        0.12
  34                   JUNCTION     0.01     0.22     3.08     0  00:00        0.18
  35                   JUNCTION     0.01     0.22     3.05     0  00:00        0.17
  36                   JUNCTION     0.01     0.22     3.01     0  00:00        0.13
  37                   JUNCTION     0.02     0.19     2.94     0  00:00        0.15
  38                   JUNCTION     0.02     0.16     2.90     0  00:00        0.15
  39                   JUNCTION     0.02     0.13     2.88     0  00:00        0.12
  40                   JUNCTION     0.02     0.12     2.86     0  00:00        0.10
  41                   JUNCTION     0.02     0.11     2.84     0  00:00        0.11
  42                   JUNCTION     0.02     0.10     2.83     0  00:00        0.09
  43                   JUNCTION     0.03     0.09     2.82     0  00:00        0.08
  44                   JUNCTION     0.03     0.08     2.81     0  00:00        0.08
  45                   JUNCTION     0.03     0.08     2.80     0  00:00        0.08
  46                   JUNCTION     0.03     0.08     2.80     0  00:00        0.08
  47                   JUNCTION     0.03     0.07     2.79     0  00:00        0.07
  48                   JUNCTION     0.03     0.07     2.79     0  00:00        0.07
  49                   JUNCTION     0.03     0.07     2.79     0  00:00        0.06
  50                   JUNCTION     0.03     0.06     2.79     0  00:00        0.06
  51                   JUNCTION     0.02     0.06     2.78     0  00:00        0.05
  52                   JUNCTION     0.02     0.05     2.78     0  00:00        0.05
  53                   JUNCTION     0.02     0.05     2.78     0  00:00        0.05
  54                   JUNCTION     0.02     0.05     2.77     0  00:00        0.05
  55                   JUNCTION     0.02     0.05     2.77     0  00:00        0.05
  56                   JUNCTION     0.02     0.04     2.76     0  00:00        0.04
  57                   JUNCTION     0.02     0.04     2.76     0  00:00        0.04
  58                   JUNCTION     0.02     0.04     2.76     0  00:00        0.04
  59                   JUNCTION     0.02     0.04     2.75     0  00:00        0.04
  60                   JUNCTION     0.02     0.04     2.75     0  00:00        0.04
  61                   JUNCTION     0.02     0.04     2.75     0  00:00        0.04
  62                   JUNCTION     0.02     0.04     2.74     0  00:00        0.04
  63                   JUNCTION     0.01     0.04     2.74     0  00:00        0.04
  64                   JUNCTION     0.01     0.02     2.67     0  00:00        0.02
  65                   JUNCTION     0.01     0.03     2.62     0  00:00        0.02
  66                   JUNCTION     0.01     0.03     2.56     0  00:00        0.02
  67                   JUNCTION     0.01     0.03     2.51     0  00:00        0.03
  68                   JUNCTION     0.01     0.03     2.46     0  00:00        0.03
  69                   JUNCTION     0.01     0.03     2.40     0  00:00        0.03
  70                   JUNCTION     0.01     0.03     2.35     0  00:00        0.03
  71                   JUNCTION     0.01     0.03     2.29     0  00:00        0.03
  72                   JUNCTION     0.01     0.04     2.24     0  00:00        0.03
  73                   JUNCTION     0.01     0.04     2.14     0  00:00        0.04
  74                   JUNCTION     0.01     0.04     2.10     0  00:00        0.03
  75                   JUNCTION     0.01     0.04     2.05     0  00:00        0.04
  76                   JUNCTION     0.01     0.04     2.01     0  00:00        0.04
  77                   JUNCTION     0.01     0.04     1.96     0  00:00        0.04
  78                   JUNCTION     0.01     0.05     1.91     0  00:00        0.04
  79                   JUNCTION     0.01     0.05     1.87     0  00:00        0.05
  80                   JUNCTION     0.01     0.05     1.82     0  00:00        0.04
  81                   JUNCTION     0.01     0.05     1.78     0  00:00        0.05
  9                    OUTFALL      0.01     0.04     1.72     0  00:00        0.03
  
  
  *******************
  Node Inflow Summary
  *******************
  
  -------------------------------------------------------------------------------------------------
                                  Maximum  Maximum                  Lateral       Total        Flow
                                  Lateral    Total  Time of Max      Inflow      Inflow     Balance
                                   Inflow   Inflow   Occurrence      Volume      Volume       Error
  Node                 Type           CFS      CFS  days hr:min    10^6 gal    10^6 gal     Percent
  -------------------------------------------------------------------------------------------------
  1                    JUNCTION      0.00     0.01     0  00:00           0    8.25e-07       0.004 gal
  2                    JUNCTION      0.00     0.00     0  00:00           0    8.59e-07       0.003 gal
  3                    JUNCTION      0.00     0.12     0  00:00           0    1.11e-06       0.002 gal
  4                    JUNCTION      0.00     0.10     0  00:00           0    1.11e-06       0.000 gal
  5                    JUNCTION      0.00     0.06     0  00:00           0    1.12e-06       0.000 gal
  6                    JUNCTION      0.02     0.02     0  00:00    1.11e-06    1.11e-06      -0.005 gal
  7                    JUNCTION      0.00     0.01     0  00:00           0    9.47e-07       0.008 gal
  8                    JUNCTION      0.00     0.02     0  00:00           0    1.07e-06       0.014 gal
  10                   JUNCTION      0.00     0.02     0  00:00           0    1.12e-06       0.001 gal
  11                   JUNCTION      0.00     0.02     0  00:00           0    1.12e-06      -0.000 gal
  12                   JUNCTION      0.00     0.03     0  00:00           0    1.12e-06      -0.000 gal
  13                   JUNCTION      0.00     0.03     0  00:00           0    1.12e-06      -0.000 gal
  14                   JUNCTION      0.00     0.04     0  00:00           0    1.12e-06      -0.000 gal
  15                   JUNCTION      0.00     0.04     0  00:00           0    1.12e-06      -0.000 gal
  16                   JUNCTION      0.00     0.05     0  00:00           0    1.12e-06      -0.000 gal
  17                   JUNCTION      0.00     0.05     0  00:00           0    1.12e-06      -0.000 gal
  18                   JUNCTION      0.00     0.06     0  00:00           0    1.12e-06      -0.001 gal
  19                   JUNCTION      0.00     0.06     0  00:00           0    1.12e-06       0.000 gal
  20                   JUNCTION      0.00     0.07     0  00:00           0    1.12e-06       0.000 gal
  21                   JUNCTION      0.00     0.07     0  00:00           0    1.12e-06       0.000 gal
  22                   JUNCTION      0.00     0.07     0  00:00           0    1.12e-06       0.000 gal
  23                   JUNCTION      0.00     0.08     0  00:00           0    1.12e-06       0.000 gal
  24                   JUNCTION      0.00     0.08     0  00:00           0    1.12e-06       0.000 gal
  25                   JUNCTION      0.00     0.09     0  00:00           0    1.12e-06       0.000 gal
  26                   JUNCTION      0.00     0.09     0  00:00           0    1.12e-06       0.001 gal
  27                   JUNCTION      0.00     0.10     0  00:00           0    1.12e-06       0.001 gal
  28                   JUNCTION      0.00     0.10     0  00:00           0    1.11e-06       0.001 gal
  29                   JUNCTION      0.00     0.11     0  00:00           0    1.11e-06       0.001 gal
  30                   JUNCTION      0.00     0.11     0  00:00           0    1.11e-06       0.001 gal
  31                   JUNCTION      0.00     0.11     0  00:00           0    1.11e-06       0.001 gal
  32                   JUNCTION      0.00     0.11     0  00:00           0    1.11e-06       0.000 gal
  33                   JUNCTION      0.00     0.12     0  00:00           0    1.11e-06       0.000 gal
  34                   JUNCTION      0.00     0.12     0  00:00           0    1.11e-06       0.000 gal
  35                   JUNCTION      0.00     0.12     0  00:00           0    1.11e-06      -0.000 gal
  36                   JUNCTION      0.00     0.12     0  00:00           0    1.11e-06      -0.002 gal
  37                   JUNCTION      0.00     0.11     0  00:00           0    1.11e-06      -0.004 gal
  38                   JUNCTION      0.00     0.08     0  00:00           0    1.11e-06       0.000 gal
  39                   JUNCTION      0.00     0.06     0  00:00           0    1.11e-06       0.002 gal
  40                   JUNCTION      0.00     0.04     0  00:00           0    1.11e-06       0.003 gal
  41                   JUNCTION      0.00     0.03     0  00:00           0    1.11e-06       0.004 gal
  42                   JUNCTION      0.00     0.03     0  00:00           0     1.1e-06       0.006 gal
  43                   JUNCTION      0.00     0.02     0  00:00           0     1.1e-06       0.007 gal
  44                   JUNCTION      0.00     0.02     0  00:00           0    1.09e-06       0.009 gal
  45                   JUNCTION      0.00     0.02     0  00:00           0    1.08e-06       0.011 gal
  46                   JUNCTION      0.00     0.01     0  00:00           0    1.06e-06       0.013 gal
  47                   JUNCTION      0.00     0.01     0  00:00           0    1.04e-06       0.013 gal
  48                   JUNCTION      0.00     0.01     0  00:00           0    1.03e-06       0.013 gal
  49                   JUNCTION      0.00     0.01     0  00:00           0    1.02e-06       0.013 gal
  50                   JUNCTION      0.00     0.01     0  00:00           0       1e-06       0.013 gal
  51                   JUNCTION      0.00     0.01     0  00:00           0    9.92e-07       0.012 gal
  52                   JUNCTION      0.00     0.01     0  00:00           0     9.8e-07       0.012 gal
  53                   JUNCTION      0.00     0.01     0  00:00           0    9.69e-07       0.011 gal
  54                   JUNCTION      0.00     0.01     0  00:00           0    9.57e-07       0.010 gal
  55                   JUNCTION      0.00     0.00     0  00:00           0    9.39e-07       0.008 gal
  56                   JUNCTION      0.00     0.00     0  00:00           0    9.31e-07       0.009 gal
  57                   JUNCTION      0.00     0.00     0  00:00           0    9.22e-07       0.009 gal
  58                   JUNCTION      0.00     0.00     0  00:00           0    9.14e-07       0.009 gal
  59                   JUNCTION      0.00     0.00     0  00:00           0    9.04e-07       0.009 gal
  60                   JUNCTION      0.00     0.00     0  00:00           0    8.95e-07       0.010 gal
  61                   JUNCTION      0.00     0.00     0  00:00           0    8.86e-07       0.010 gal
  62                   JUNCTION      0.00     0.00     0  00:00           0    8.76e-07       0.009 gal
  63                   JUNCTION      0.00     0.00     0  00:00           0    8.67e-07       0.008 gal
  64                   JUNCTION      0.00     0.00     0  00:00           0    8.55e-07       0.003 gal
  65                   JUNCTION      0.00     0.00     0  00:00           0    8.52e-07       0.003 gal
  66                   JUNCTION      0.00     0.00     0  00:00           0    8.49e-07       0.003 gal
  67                   JUNCTION      0.00     0.01     0  00:00           0    8.46e-07       0.003 gal
  68                   JUNCTION      0.00     0.01     0  00:00           0    8.42e-07       0.003 gal
  69                   JUNCTION      0.00     0.01     0  00:00           0    8.39e-07       0.003 gal
  70                   JUNCTION      0.00     0.01     0  00:00           0    8.35e-07       0.003 gal
  71                   JUNCTION      0.00     0.01     0  00:00           0    8.32e-07       0.004 gal
  72                   JUNCTION      0.00     0.01     0  00:00           0    8.28e-07       0.004 gal
  73                   JUNCTION      0.00     0.01     0  00:00           0    8.21e-07       0.004 gal
  74                   JUNCTION      0.00     0.01     0  00:00           0    8.17e-07       0.004 gal
  75                   JUNCTION      0.00     0.01     0  00:00           0    8.13e-07       0.004 gal
  76                   JUNCTION      0.00     0.01     0  00:00           0    8.09e-07       0.004 gal
  77                   JUNCTION      0.00     0.01     0  00:00           0    8.05e-07       0.004 gal
  78                   JUNCTION      0.00     0.01     0  00:00           0    8.01e-07       0.004 gal
  79                   JUNCTION      0.00     0.01     0  00:00           0    7.97e-07       0.004 gal
  80                   JUNCTION      0.00     0.01     0  00:00           0    7.92e-07       0.004 gal
  81                   JUNCTION      0.00     0.01     0  00:00           0    7.88e-07       0.006 gal
  9                    OUTFALL       0.00     0.01     0  00:00           0    7.82e-07       0.000 gal
  
  
  **********************
  Node Surcharge Summary
  **********************
  
  Surcharging occurs when water rises above the top of the highest conduit.
  ---------------------------------------------------------------------
                                               Max. Height   Min. Depth
                                   Hours       Above Crown    Below Rim
  Node                 Type      Surcharged           Feet         Feet
  ---------------------------------------------------------------------
  3                    JUNCTION        0.01          0.000        0.000
  
  
  *********************
  Node Flooding Summary
  *********************
  
  Flooding refers to all water that overflows a node, whether it ponds or not.
  --------------------------------------------------------------------------
                                                             Total   Maximum
                                 Maximum   Time of Max       Flood    Ponded
                        Hours       Rate    Occurrence      Volume     Depth
  Node                 Flooded       CFS   days hr:min    10^6 gal      Feet
  --------------------------------------------------------------------------
  3                       0.01      0.02      0  00:00       0.000     0.000
  
  
  ***********************
  Outfall Loading Summary
  ***********************
  
  -----------------------------------------------------------
                         Flow       Avg       Max       Total
                         Freq      Flow      Flow      Volume
  Outfall Node           Pcnt       CFS       CFS    10^6 gal
  -----------------------------------------------------------
  9                     37.61      0.00      0.01       0.000
  -----------------------------------------------------------
  System                37.61      0.00      0.01       0.000
  
  
  ********************
  Link Flow Summary
  ********************
  
  -----------------------------------------------------------------------------
                                 Maximum  Time of Max   Maximum    Max/    Max/
                                  |Flow|   Occurrence   |Veloc|    Full    Full
  Link                 Type          CFS  days hr:min    ft/sec    Flow   Depth
  -----------------------------------------------------------------------------
  17                   CONDUIT      0.02     0  00:00      3.26    0.09    0.21
  18                   CONDUIT      0.02     0  00:00      3.22    0.09    0.24
  19                   CONDUIT      0.03     0  00:00      3.16    0.10    0.27
  20                   CONDUIT      0.03     0  00:00      3.11    0.12    0.30
  21                   CONDUIT      0.04     0  00:00      3.13    0.13    0.33
  22                   CONDUIT      0.04     0  00:00      3.16    0.15    0.36
  23                   CONDUIT      0.05     0  00:00      3.20    0.17    0.39
  24                   CONDUIT      0.05     0  00:00      3.23    0.19    0.41
  25                   CONDUIT      0.06     0  00:00      3.23    0.21    0.44
  26                   CONDUIT      0.06     0  00:00      2.99    0.23    0.47
  27                   CONDUIT      0.06     0  00:00      2.75    0.32    0.51
  28                   CONDUIT      0.07     0  00:00      2.73    0.33    0.52
  29                   CONDUIT      0.07     0  00:00      2.70    0.35    0.54
  30                   CONDUIT      0.07     0  00:00      2.67    0.37    0.56
  31                   CONDUIT      0.08     0  00:00      2.71    0.39    0.57
  32                   CONDUIT      0.08     0  00:00      2.75    0.41    0.59
  33                   CONDUIT      0.09     0  00:00      2.79    0.43    0.61
  34                   CONDUIT      0.09     0  00:00      2.83    0.45    0.62
  35                   CONDUIT      0.10     0  00:00      2.87    0.47    0.64
  36                   CONDUIT      0.10     0  00:00      2.94    0.49    0.65
  37                   CONDUIT      0.10     0  00:00      3.02    0.47    0.66
  38                   CONDUIT      0.11     0  00:00      3.06    0.48    0.67
  39                   CONDUIT      0.11     0  00:00      3.09    0.50    0.68
  40                   CONDUIT      0.11     0  00:00      3.13    0.51    0.69
  41                   CONDUIT      0.11     0  00:00      3.15    0.52    0.69
  42                   CONDUIT      0.12     0  00:00      3.17    0.52    0.70
  43                   CONDUIT      0.12     0  00:00      3.19    0.53    0.70
  44                   CONDUIT      0.12     0  00:00      3.20    0.53    0.70
  45                   CONDUIT      0.12     0  00:00      3.21    0.53    0.70
  46                   CONDUIT      0.12     0  00:00      3.08    0.53    0.73
  47                   CONDUIT      0.11     0  00:00      2.95    1.97    0.74
  48                   CONDUIT      0.08     0  00:00      2.70    1.36    0.60
  49                   CONDUIT      0.06     0  00:00      2.41    0.97    0.52
  50                   CONDUIT      0.04     0  00:00      2.20    0.75    0.46
  51                   CONDUIT      0.03     0  00:00      2.05    0.60    0.42
  52                   CONDUIT      0.03     0  00:00      1.93    0.49    0.38
  53                   CONDUIT      0.02     0  00:00      1.79    0.42    0.35
  54                   CONDUIT      0.02     0  00:00      1.74    0.36    0.33
  55                   CONDUIT      0.02     0  00:00      1.67    0.31    0.31
  56                   CONDUIT      0.02     0  00:00      1.60    0.27    0.31
  57                   CONDUIT      0.01     0  00:00      1.45    0.39    0.31
  58                   CONDUIT      0.01     0  00:00      1.51    0.35    0.29
  59                   CONDUIT      0.01     0  00:00      1.38    0.32    0.27
  60                   CONDUIT      0.01     0  00:00      1.40    0.30    0.26
  61                   CONDUIT      0.01     0  00:00      1.33    0.27    0.25
  62                   CONDUIT      0.01     0  00:00      1.32    0.24    0.23
  63                   CONDUIT      0.01     0  00:00      1.26    0.22    0.21
  64                   CONDUIT      0.01     0  00:00      1.26    0.20    0.21
  65                   CONDUIT      0.01     0  00:00      1.19    0.17    0.20
  66                   CONDUIT      0.01     0  00:00      1.18    0.16    0.19
  67                   CONDUIT      0.00     0  00:00      1.14    0.09    0.19
  68                   CONDUIT      0.00     0  00:00      1.10    0.08    0.17
  69                   CONDUIT      0.00     0  00:00      1.11    0.08    0.17
  70                   CONDUIT      0.00     0  00:00      1.05    0.07    0.17
  71                   CONDUIT      0.00     0  00:00      1.07    0.07    0.16
  72                   CONDUIT      0.00     0  00:00      1.03    0.07    0.16
  73                   CONDUIT      0.00     0  00:00      1.04    0.06    0.16
  74                   CONDUIT      0.00     0  00:00      0.97    0.06    0.15
  75                   CONDUIT      0.00     0  00:00      0.95    0.06    0.15
  76                   CONDUIT      0.00     0  00:00      1.28    0.07    0.11
  77                   CONDUIT      0.00     0  00:00      1.90    0.01    0.09
  78                   CONDUIT      0.00     0  00:00      1.89    0.02    0.09
  79                   CONDUIT      0.00     0  00:00      1.90    0.02    0.10
  80                   CONDUIT      0.01     0  00:00      1.90    0.02    0.10
  81                   CONDUIT      0.01     0  00:00      1.91    0.02    0.11
  82                   CONDUIT      0.01     0  00:00      1.93    0.02    0.11
  83                   CONDUIT      0.01     0  00:00      1.97    0.02    0.12
  84                   CONDUIT      0.01     0  00:00      2.00    0.03    0.12
  85                   CONDUIT      0.01     0  00:00      2.03    0.03    0.13
  86                   CONDUIT      0.01     0  00:00      2.02    0.03    0.13
  87                   CONDUIT      0.01     0  00:00      1.97    0.03    0.14
  88                   CONDUIT      0.01     0  00:00      1.99    0.03    0.14
  89                   CONDUIT      0.01     0  00:00      2.01    0.04    0.15
  90                   CONDUIT      0.01     0  00:00      2.03    0.04    0.15
  91                   CONDUIT      0.01     0  00:00      2.05    0.04    0.15
  92                   CONDUIT      0.01     0  00:00      2.07    0.04    0.16
  93                   CONDUIT      0.01     0  00:00      2.08    0.04    0.16
  94                   CONDUIT      0.01     0  00:00      2.10    0.04    0.16
  95                   CONDUIT      0.01     0  00:00      2.10    0.05    0.17
  96                   CONDUIT      0.01     0  00:00      2.60    0.05    0.16
  
  
  ***************************
  Flow Classification Summary
  ***************************
  
  -------------------------------------------------------------------------------------
                      Adjusted    ---------- Fraction of Time in Flow Class ---------- 
                       /Actual         Up    Down  Sub   Sup   Up    Down  Norm  Inlet 
  Conduit               Length    Dry  Dry   Dry   Crit  Crit  Crit  Crit  Ltd   Ctrl  
  -------------------------------------------------------------------------------------
  17                      1.00   0.00  0.00  0.00  0.78  0.22  0.00  0.00  0.88  0.00
  18                      1.00   0.00  0.00  0.00  0.73  0.27  0.00  0.00  0.88  0.00
  19                      1.00   0.00  0.00  0.00  0.72  0.28  0.00  0.00  0.89  0.00
  20                      1.00   0.01  0.00  0.00  0.71  0.28  0.00  0.00  0.89  0.00
  21                      1.00   0.01  0.00  0.00  0.70  0.28  0.00  0.00  0.89  0.00
  22                      1.00   0.02  0.00  0.00  0.69  0.29  0.00  0.00  0.88  0.00
  23                      1.00   0.02  0.00  0.00  0.69  0.29  0.00  0.00  0.88  0.00
  24                      1.00   0.03  0.00  0.00  0.68  0.29  0.00  0.00  0.88  0.00
  25                      1.00   0.03  0.00  0.00  0.67  0.30  0.00  0.00  0.89  0.00
  26                      1.00   0.04  0.00  0.00  0.66  0.30  0.00  0.00  0.91  0.00
  27                      1.00   0.04  0.00  0.00  0.65  0.31  0.00  0.00  0.89  0.00
  28                      1.00   0.05  0.00  0.00  0.64  0.31  0.00  0.00  0.89  0.00
  29                      1.00   0.05  0.00  0.00  0.63  0.32  0.00  0.00  0.89  0.00
  30                      1.00   0.06  0.00  0.00  0.62  0.33  0.00  0.00  0.89  0.00
  31                      1.00   0.06  0.00  0.00  0.61  0.33  0.00  0.00  0.88  0.00
  32                      1.00   0.07  0.00  0.00  0.60  0.34  0.00  0.00  0.88  0.00
  33                      1.00   0.07  0.00  0.00  0.59  0.35  0.00  0.00  0.88  0.00
  34                      1.00   0.07  0.00  0.00  0.57  0.35  0.00  0.00  0.87  0.00
  35                      1.00   0.08  0.00  0.00  0.56  0.36  0.00  0.00  0.87  0.00
  36                      1.00   0.08  0.00  0.00  0.56  0.36  0.00  0.00  0.85  0.00
  37                      1.00   0.09  0.00  0.00  0.55  0.37  0.00  0.00  0.86  0.00
  38                      1.00   0.09  0.00  0.00  0.54  0.37  0.00  0.00  0.86  0.00
  39                      1.00   0.09  0.00  0.00  0.53  0.38  0.00  0.00  0.86  0.00
  40                      1.00   0.10  0.00  0.00  0.52  0.38  0.00  0.00  0.34  0.00
  41                      1.00   0.10  0.00  0.00  0.51  0.39  0.00  0.00  0.85  0.00
  42                      1.00   0.11  0.00  0.00  0.50  0.39  0.00  0.00  0.85  0.00
  43                      1.00   0.11  0.00  0.00  0.49  0.40  0.00  0.00  0.85  0.00
  44                      1.00   0.11  0.00  0.00  0.48  0.40  0.00  0.00  0.84  0.00
  45                      1.00   0.12  0.00  0.00  0.47  0.41  0.00  0.00  0.84  0.00
  46                      1.00   0.12  0.37  0.00  0.51  0.01  0.00  0.00  0.84  0.00
  47                      1.00   0.12  0.00  0.00  0.87  0.00  0.00  0.00  0.00  0.00
  48                      1.00   0.13  0.00  0.00  0.87  0.00  0.00  0.00  0.13  0.00
  49                      1.00   0.13  0.00  0.00  0.86  0.00  0.00  0.00  0.04  0.00
  50                      1.00   0.14  0.00  0.00  0.86  0.01  0.00  0.00  0.01  0.00
  51                      1.00   0.14  0.00  0.00  0.85  0.01  0.00  0.00  0.02  0.00
  52                      1.00   0.15  0.00  0.00  0.85  0.00  0.00  0.00  0.02  0.00
  53                      1.00   0.15  0.00  0.00  0.84  0.01  0.00  0.00  0.02  0.00
  54                      1.00   0.16  0.00  0.00  0.84  0.01  0.00  0.00  0.03  0.00
  55                      1.00   0.16  0.00  0.00  0.83  0.01  0.00  0.00  0.01  0.00
  56                      1.00   0.17  0.00  0.00  0.82  0.01  0.00  0.00  0.00  0.00
  57                      1.00   0.18  0.00  0.00  0.81  0.01  0.00  0.00  0.00  0.00
  58                      1.00   0.18  0.00  0.00  0.81  0.01  0.00  0.00  0.00  0.00
  59                      1.00   0.19  0.00  0.00  0.80  0.01  0.00  0.00  0.00  0.00
  60                      1.00   0.20  0.00  0.00  0.80  0.01  0.00  0.00  0.00  0.00
  61                      1.00   0.21  0.00  0.00  0.79  0.01  0.00  0.00  0.00  0.00
  62                      1.00   0.21  0.00  0.00  0.78  0.01  0.00  0.00  0.00  0.00
  63                      1.00   0.22  0.00  0.00  0.77  0.01  0.00  0.00  0.00  0.00
  64                      1.00   0.23  0.00  0.00  0.76  0.01  0.00  0.00  0.00  0.00
  65                      1.00   0.24  0.00  0.00  0.75  0.01  0.00  0.00  0.00  0.00
  66                      1.00   0.25  0.00  0.00  0.74  0.01  0.00  0.00  0.00  0.00
  67                      1.00   0.26  0.00  0.00  0.73  0.01  0.00  0.00  0.04  0.00
  68                      1.00   0.27  0.00  0.00  0.72  0.01  0.00  0.00  0.03  0.00
  69                      1.00   0.28  0.00  0.00  0.71  0.01  0.00  0.00  0.03  0.00
  70                      1.00   0.28  0.00  0.00  0.70  0.01  0.00  0.00  0.05  0.00
  71                      1.00   0.29  0.00  0.00  0.69  0.01  0.00  0.00  0.11  0.00
  72                      1.00   0.30  0.00  0.00  0.68  0.01  0.00  0.00  0.40  0.00
  73                      1.00   0.31  0.00  0.00  0.68  0.01  0.00  0.00  0.05  0.00
  74                      1.00   0.33  0.00  0.00  0.66  0.01  0.00  0.00  0.00  0.00
  75                      1.00   0.34  0.00  0.00  0.65  0.01  0.00  0.00  0.00  0.00
  76                      1.00   0.35  0.00  0.00  0.02  0.63  0.00  0.00  0.01  0.00
  77                      1.00   0.36  0.00  0.00  0.01  0.63  0.00  0.00  0.27  0.00
  78                      1.00   0.37  0.00  0.00  0.01  0.63  0.00  0.00  0.36  0.00
  79                      1.00   0.37  0.00  0.00  0.01  0.62  0.00  0.00  0.44  0.00
  80                      1.00   0.38  0.00  0.00  0.01  0.61  0.00  0.00  0.49  0.00
  81                      1.00   0.39  0.00  0.00  0.01  0.61  0.00  0.00  0.51  0.00
  82                      1.00   0.39  0.00  0.00  0.01  0.60  0.00  0.00  0.52  0.00
  83                      1.00   0.40  0.00  0.00  0.01  0.60  0.00  0.00  0.53  0.00
  84                      1.00   0.40  0.00  0.00  0.01  0.59  0.00  0.00  0.54  0.00
  85                      1.00   0.41  0.00  0.00  0.01  0.58  0.00  0.00  0.55  0.00
  86                      1.00   0.42  0.00  0.00  0.01  0.58  0.00  0.00  0.56  0.00
  87                      1.00   0.42  0.00  0.00  0.01  0.57  0.00  0.00  0.56  0.00
  88                      1.00   0.43  0.00  0.00  0.01  0.57  0.00  0.00  0.55  0.00
  89                      1.00   0.43  0.00  0.00  0.01  0.56  0.00  0.00  0.55  0.00
  90                      1.00   0.44  0.00  0.00  0.01  0.56  0.00  0.00  0.54  0.00
  91                      1.00   0.44  0.00  0.00  0.01  0.55  0.00  0.00  0.53  0.00
  92                      1.00   0.45  0.00  0.00  0.01  0.54  0.00  0.00  0.53  0.00
  93                      1.00   0.46  0.00  0.00  0.01  0.54  0.00  0.00  0.52  0.00
  94                      1.00   0.46  0.00  0.00  0.01  0.53  0.00  0.00  0.52  0.00
  95                      1.00   0.47  0.00  0.00  0.01  0.53  0.00  0.00  0.51  0.00
  96                      1.00   0.47  0.00  0.00  0.01  0.52  0.00  0.00  0.50  0.00
  
  
  *************************
  Conduit Surcharge Summary
  *************************
  
  ----------------------------------------------------------------------------
                                                           Hours        Hours 
                         --------- Hours Full --------   Above Full   Capacity
  Conduit                Both Ends  Upstream  Dnstream   Normal Flow   Limited
  ----------------------------------------------------------------------------
  46                          0.01      0.01      0.01      0.01         0.01
  47                          0.01      0.01      0.01      0.01         0.01
  48                          0.01      0.01      0.01      0.01         0.01
  

  Analysis begun on:  Wed Mar  5 16:56:58 2025
  Analysis ended on:  Wed Mar  5 16:56:58 2025
  Total elapsed time: < 1 sec