
  EPA STORM WATER MANAGEMENT MODEL - VERSION 5.2 (Build 5.2.4)
  PYSWMM TOOLKIT API - VERSION v1.0 (2023-11-27)
  ------------------------------------------------------------

  WARNING 04: minimum elevation drop used for Conduit 13

  Analysis begun on:  Wed Mar  5 17:44:42 2025
  Analysis ended on:  Wed Mar  5 17:44:42 2025
  Total elapsed time: < 1 sec