
  OWA STORM WATER MANAGEMENT MODEL - VERSION v5.2.3 (OWA 2023-03-28)
  ------------------------------------------------------------


  Analysis begun on:  Sat Mar  1 11:39:27 2025
  Analysis ended on:  Sat Mar  1 11:39:27 2025
  Total elapsed time: < 1 sec