
  OWA STORM WATER MANAGEMENT MODEL - VERSION v5.2.3 (OWA 2023-03-28)
  ------------------------------------------------------------

  
  ****************
  Analysis Options
  ****************
  Flow Units ............... CFS
  Process Models:
    Rainfall/Runoff ........ YES
    RDII ................... NO
    Snowmelt ............... NO
    Groundwater ............ NO
    Flow Routing ........... YES
    Ponding Allowed ........ NO
    Water Quality .......... NO
  Infiltration Method ...... HORTON
  Flow Routing Method ...... DYNWAVE
  Surcharge Method ......... EXTRAN
  Starting Date ............ 01/01/2020 00:00:00
  Ending Date .............. 01/01/2020 23:00:00
  Antecedent Dry Days ...... 0.0
  Report Time Step ......... 00:01:00
  Wet Time Step ............ 00:01:00
  Dry Time Step ............ 00:01:00
  Routing Time Step ........ 10.00 sec
  Variable Time Step ....... YES
  Maximum Trials ........... 8
  Number of Threads ........ 1
  Head Tolerance ........... 0.005000 ft
  
  
  **************************        Volume         Depth
  Runoff Quantity Continuity     acre-feet        inches
  **************************     ---------       -------
  Total Precipitation ......        19.792         2.500
  Evaporation Loss .........         0.000         0.000
  Infiltration Loss ........        14.586         1.842
  Surface Runoff ...........         5.162         0.652
  Final Storage ............         0.075         0.009
  Continuity Error (%) .....        -0.159
  
  
  **************************        Volume        Volume
  Flow Routing Continuity        acre-feet      10^6 gal
  **************************     ---------     ---------
  Dry Weather Inflow .......         0.000         0.000
  Wet Weather Inflow .......         5.162         1.682
  Groundwater Inflow .......         0.000         0.000
  RDII Inflow ..............         0.000         0.000
  External Inflow ..........         0.000         0.000
  External Outflow .........         3.097         1.009
  Flooding Loss ............         2.059         0.671
  Evaporation Loss .........         0.000         0.000
  Exfiltration Loss ........         0.000         0.000
  Initial Stored Volume ....         0.000         0.000
  Final Stored Volume ......         0.015         0.005
  Continuity Error (%) .....        -0.194
  
  
  ***************************
  Time-Step Critical Elements
  ***************************
  None
  
  
  ********************************
  Highest Flow Instability Indexes
  ********************************
  All links are stable.
  
  
  *********************************
  Most Frequent Nonconverging Nodes
  *********************************
  Convergence obtained at all time steps.
  
  
  *************************
  Routing Time Step Summary
  *************************
  Minimum Time Step           :     1.62 sec
  Average Time Step           :     9.99 sec
  Maximum Time Step           :    10.00 sec
  % of Time in Steady State   :     0.00
  Average Iterations per Step :     2.01
  % of Steps Not Converging   :     0.00
  Time Step Frequencies       :
     10.000 -  5.493 sec      :    99.88 %
      5.493 -  3.017 sec      :     0.07 %
      3.017 -  1.657 sec      :     0.04 %
      1.657 -  0.910 sec      :     0.01 %
      0.910 -  0.500 sec      :     0.00 %
  
  
  ***************************
  Subcatchment Runoff Summary
  ***************************
  
  ------------------------------------------------------------------------------------------------------------------------------
                            Total      Total      Total      Total     Imperv       Perv      Total       Total     Peak  Runoff
                           Precip      Runon       Evap      Infil     Runoff     Runoff     Runoff      Runoff   Runoff   Coeff
  Subcatchment                 in         in         in         in         in         in         in    10^6 gal      CFS
  ------------------------------------------------------------------------------------------------------------------------------
  65                         2.50       0.00       0.00       1.84       0.62       0.03       0.65        0.09     3.53   0.261
  66                         2.50       0.00       0.00       1.84       0.62       0.03       0.65        0.09     3.53   0.261
  67                         2.50       0.00       0.00       1.84       0.62       0.03       0.65        0.09     3.53   0.261
  68                         2.50       0.00       0.00       1.84       0.62       0.03       0.65        0.09     3.53   0.261
  69                         2.50       0.00       0.00       1.84       0.62       0.03       0.65        0.09     3.53   0.261
  70                         2.50       0.00       0.00       1.84       0.62       0.03       0.65        0.09     3.53   0.261
  71                         2.50       0.00       0.00       1.84       0.62       0.03       0.65        0.09     3.53   0.261
  72                         2.50       0.00       0.00       1.84       0.62       0.03       0.65        0.09     3.53   0.261
  73                         2.50       0.00       0.00       1.84       0.62       0.03       0.65        0.09     3.53   0.261
  74                         2.50       0.00       0.00       1.84       0.62       0.03       0.65        0.09     3.53   0.261
  75                         2.50       0.00       0.00       1.84       0.62       0.03       0.65        0.09     3.53   0.261
  76                         2.50       0.00       0.00       1.84       0.62       0.03       0.65        0.09     3.53   0.261
  77                         2.50       0.00       0.00       1.84       0.62       0.03       0.65        0.09     3.53   0.261
  78                         2.50       0.00       0.00       1.84       0.62       0.03       0.65        0.09     3.53   0.261
  79                         2.50       0.00       0.00       1.84       0.62       0.03       0.65        0.09     3.53   0.261
  80                         2.50       0.00       0.00       1.84       0.62       0.03       0.65        0.09     3.53   0.261
  81                         2.50       0.00       0.00       1.84       0.62       0.03       0.65        0.09     3.53   0.261
  82                         2.50       0.00       0.00       1.84       0.62       0.03       0.65        0.09     3.53   0.261
  83                         2.50       0.00       0.00       1.84       0.62       0.03       0.65        0.09     3.53   0.261
  
  
  ******************
  Node Depth Summary
  ******************
  
  ---------------------------------------------------------------------------------
                                 Average  Maximum  Maximum  Time of Max    Reported
                                   Depth    Depth      HGL   Occurrence   Max Depth
  Node                 Type         Feet     Feet     Feet  days hr:min        Feet
  ---------------------------------------------------------------------------------
  2                    JUNCTION     0.25     0.86    10.86     0  19:05        0.85
  3                    JUNCTION     0.12     1.00    21.00     0  16:06        1.00
  4                    JUNCTION     0.06     0.52    30.52     0  19:05        0.51
  5                    JUNCTION     0.06     0.52    30.52     0  19:05        0.51
  6                    JUNCTION     0.15     0.78    20.78     0  19:05        0.77
  7                    JUNCTION     0.15     1.00    41.00     0  15:06        1.00
  8                    JUNCTION     0.12     1.00    51.00     0  16:06        1.00
  9                    JUNCTION     0.06     0.52    60.52     0  19:05        0.51
  10                   JUNCTION     0.06     0.52    60.52     0  19:05        0.51
  11                   JUNCTION     0.06     0.52    50.52     0  19:05        0.51
  13                   JUNCTION     0.06     0.52    50.52     0  19:05        0.51
  14                   JUNCTION     0.06     0.52    50.52     0  19:05        0.51
  15                   JUNCTION     0.20     0.84    20.84     0  19:05        0.82
  16                   JUNCTION     0.06     0.52    30.52     0  19:05        0.51
  17                   JUNCTION     0.12     1.00    41.00     0  16:06        1.00
  18                   JUNCTION     0.06     0.52    50.52     0  19:05        0.51
  19                   JUNCTION     0.06     0.52    50.52     0  19:05        0.51
  21                   JUNCTION     0.46     1.50     6.50     0  09:06        1.50
  22                   JUNCTION     0.24     0.72     5.72     0  15:04        0.71
  23                   JUNCTION     0.11     0.47    15.47     0  19:03        0.47
  24                   JUNCTION     0.19     1.00    16.00     0  09:05        1.00
  25                   JUNCTION     0.07     0.47    25.47     0  18:05        0.46
  26                   JUNCTION     0.10     1.00    26.00     0  17:05        1.00
  27                   JUNCTION     0.07     0.47    25.47     0  18:05        0.46
  28                   JUNCTION     0.10     1.00    26.00     0  17:05        1.00
  29                   JUNCTION     0.15     0.47    15.47     0  16:04        0.47
  30                   JUNCTION     0.27     1.00    16.00     0  09:07        1.00
  31                   JUNCTION     0.13     0.47    25.47     0  15:05        0.47
  33                   JUNCTION     0.07     0.47    45.47     0  18:05        0.46
  34                   JUNCTION     0.10     1.00    46.00     0  17:05        1.00
  35                   JUNCTION     0.07     0.47    45.47     0  18:05        0.46
  36                   JUNCTION     0.10     1.00    46.00     0  17:05        1.00
  37                   JUNCTION     0.07     0.09    35.09     0  06:32        0.09
  38                   JUNCTION     0.91     1.00    36.00     0  02:13        1.00
  39                   JUNCTION     0.11     0.47    45.47     0  19:03        0.47
  40                   JUNCTION     0.19     1.00    46.00     0  09:05        1.00
  41                   JUNCTION     0.07     0.47    55.47     0  18:05        0.46
  42                   JUNCTION     0.10     1.00    56.00     0  17:05        1.00
  43                   JUNCTION     0.07     0.47    55.47     0  18:05        0.46
  44                   JUNCTION     0.10     1.00    56.00     0  17:05        1.00
  45                   JUNCTION     0.07     0.47    45.47     0  18:05        0.46
  46                   JUNCTION     0.10     1.00    46.00     0  17:05        1.00
  47                   JUNCTION     0.19     0.47    15.47     0  17:04        0.47
  48                   JUNCTION     0.36     1.00    16.00     0  11:05        1.00
  49                   JUNCTION     0.07     0.47    25.47     0  18:05        0.46
  50                   JUNCTION     0.10     1.00    26.00     0  17:05        1.00
  51                   JUNCTION     0.19     1.00    36.00     0  09:05        1.00
  52                   JUNCTION     0.11     0.53    35.53     0  15:04        0.53
  53                   JUNCTION     0.28     0.75    25.75     0  19:14        0.75
  54                   JUNCTION     0.16     0.36    25.36     0  19:15        0.36
  55                   JUNCTION     0.07     0.47    45.47     0  18:05        0.46
  56                   JUNCTION     0.10     1.00    46.00     0  17:05        1.00
  57                   JUNCTION     0.10     1.00    46.00     0  17:05        1.00
  58                   JUNCTION     0.07     0.47    45.47     0  18:05        0.46
  59                   JUNCTION     0.14     0.77    30.77     0  19:05        0.74
  60                   JUNCTION     0.24     1.00    26.00     0  10:06        1.00
  61                   JUNCTION     0.09     0.47    35.47     0  17:04        0.47
  62                   JUNCTION     0.15     1.00    36.00     0  12:06        1.00
  63                   JUNCTION     0.09     0.72    40.72     0  19:06        0.72
  1                    OUTFALL      0.24     0.69     0.69     0  15:05        0.69
  20                   STORAGE      0.16     0.36    30.36     0  19:14        0.36
  
  
  *******************
  Node Inflow Summary
  *******************
  
  -------------------------------------------------------------------------------------------------
                                  Maximum  Maximum                  Lateral       Total        Flow
                                  Lateral    Total  Time of Max      Inflow      Inflow     Balance
                                   Inflow   Inflow   Occurrence      Volume      Volume       Error
  Node                 Type           CFS      CFS  days hr:min    10^6 gal    10^6 gal     Percent
  -------------------------------------------------------------------------------------------------
  2                    JUNCTION      3.53    12.16     0  19:05      0.0885        1.06       0.003
  3                    JUNCTION      3.53     9.30     0  19:05      0.0885       0.265      -0.159
  4                    JUNCTION      3.53     3.53     0  19:05      0.0885      0.0885      -0.230
  5                    JUNCTION      3.53     3.53     0  19:05      0.0885      0.0885      -0.230
  6                    JUNCTION      3.53     6.41     0  19:05      0.0885       0.351      -0.055
  7                    JUNCTION      3.53     9.29     0  19:05      0.0885        0.39      -0.072
  8                    JUNCTION      3.53     9.30     0  19:05      0.0885       0.265      -0.159
  9                    JUNCTION      3.53     3.53     0  19:05      0.0885      0.0885      -0.230
  10                   JUNCTION      3.53     3.53     0  19:05      0.0885      0.0885      -0.230
  11                   JUNCTION      3.53     3.53     0  19:05      0.0885      0.0885      -0.230
  13                   JUNCTION      3.53     3.53     0  19:05      0.0885      0.0885      -0.230
  14                   JUNCTION      3.53     3.53     0  19:05      0.0885      0.0885      -0.230
  15                   JUNCTION      3.53     7.04     0  19:05      0.0885       0.472       0.000
  16                   JUNCTION      3.53     3.53     0  19:05      0.0885      0.0885      -0.230
  17                   JUNCTION      3.53     9.30     0  19:05      0.0885       0.265      -0.160
  18                   JUNCTION      3.53     3.53     0  19:05      0.0885      0.0885      -0.230
  19                   JUNCTION      3.53     3.53     0  19:05      0.0885      0.0885      -0.230
  21                   JUNCTION      0.00    12.02     0  19:05           0        1.06      -0.071
  22                   JUNCTION      0.00     8.01     0  16:05           0        1.01       0.047
  23                   JUNCTION      0.00     2.90     0  12:04           0       0.213      -0.022
  24                   JUNCTION      0.00     7.01     0  16:05           0       0.261      -0.069
  25                   JUNCTION      0.00     2.89     0  19:04           0      0.0881       0.004
  26                   JUNCTION      0.00     3.48     0  19:05           0      0.0887       0.211
  27                   JUNCTION      0.00     2.89     0  19:04           0      0.0881       0.004
  28                   JUNCTION      0.00     3.48     0  19:05           0      0.0887       0.211
  29                   JUNCTION      0.00     2.90     0  15:04           0       0.316       0.002
  30                   JUNCTION      0.00     6.26     0  19:05           0       0.351      -0.005
  31                   JUNCTION      0.00     2.90     0  15:05           0       0.262       0.048
  33                   JUNCTION      0.00     2.89     0  19:04           0      0.0881      -0.202
  34                   JUNCTION      0.00     3.48     0  19:05           0      0.0887       0.211
  35                   JUNCTION      0.00     2.89     0  19:04           0      0.0881      -0.202
  36                   JUNCTION      0.00     3.48     0  19:05           0      0.0887       0.211
  37                   JUNCTION      0.00     0.11     0  02:13           0      0.0432       0.060
  38                   JUNCTION      0.00     7.03     0  15:05           0       0.384       0.165
  39                   JUNCTION      0.00     2.90     0  12:04           0       0.213       0.057
  40                   JUNCTION      0.00     7.01     0  16:05           0       0.261      -0.069
  41                   JUNCTION      0.00     2.89     0  19:04           0      0.0881       0.004
  42                   JUNCTION      0.00     3.48     0  19:05           0      0.0887       0.211
  43                   JUNCTION      0.00     2.89     0  19:04           0      0.0881       0.004
  44                   JUNCTION      0.00     3.48     0  19:05           0      0.0887       0.211
  45                   JUNCTION      0.00     2.89     0  19:04           0      0.0881      -0.115
  46                   JUNCTION      0.00     3.48     0  19:05           0      0.0887       0.211
  47                   JUNCTION      0.00     2.90     0  17:03           0       0.444       0.010
  48                   JUNCTION      0.00     6.66     0  19:05           0       0.472      -0.011
  49                   JUNCTION      0.00     2.89     0  19:04           0      0.0881      -0.080
  50                   JUNCTION      0.00     3.48     0  19:05           0      0.0887       0.211
  51                   JUNCTION      0.00     7.01     0  16:05           0       0.261      -0.072
  52                   JUNCTION      0.00     2.84     0  19:10           0       0.211      -0.079
  53                   JUNCTION      0.00     1.85     0  19:14           0       0.296       0.010
  54                   JUNCTION      0.00     1.85     0  19:15           0       0.296       0.041
  55                   JUNCTION      0.00     2.89     0  19:04           0      0.0881       0.004
  56                   JUNCTION      0.00     3.48     0  19:05           0      0.0887       0.211
  57                   JUNCTION      0.00     3.48     0  19:05           0      0.0887       0.211
  58                   JUNCTION      0.00     2.89     0  19:04           0      0.0881       0.004
  59                   JUNCTION      3.53     6.51     0  19:05      0.0885       0.291      -0.096
  60                   JUNCTION      0.00     6.15     0  19:05           0       0.291      -0.046
  61                   JUNCTION      0.00     2.90     0  19:04           0        0.16       0.114
  62                   JUNCTION      0.00     5.73     0  19:06           0       0.176       0.006
  63                   JUNCTION      0.00     5.78     0  19:04           0       0.177       0.105
  1                    OUTFALL       0.00     8.34     0  15:05           0        1.01       0.000
  20                   STORAGE       3.53     6.35     0  19:05      0.0885         0.3       0.057
  
  
  **********************
  Node Surcharge Summary
  **********************
  
  Surcharging occurs when water rises above the top of the highest conduit.
  ---------------------------------------------------------------------
                                               Max. Height   Min. Depth
                                   Hours       Above Crown    Below Rim
  Node                 Type      Surcharged           Feet         Feet
  ---------------------------------------------------------------------
  3                    JUNCTION        0.10          0.000        0.000
  7                    JUNCTION        0.16          0.000        0.000
  8                    JUNCTION        0.10          0.000        0.000
  17                   JUNCTION        0.10          0.000        0.000
  21                   JUNCTION        1.17          0.000        0.000
  24                   JUNCTION        0.90          0.000        0.000
  26                   JUNCTION        0.05          0.000        0.000
  28                   JUNCTION        0.05          0.000        0.000
  30                   JUNCTION        1.27          0.000        0.000
  34                   JUNCTION        0.05          0.000        0.000
  36                   JUNCTION        0.05          0.000        0.000
  38                   JUNCTION       10.93          0.000        0.000
  40                   JUNCTION        0.90          0.000        0.000
  42                   JUNCTION        0.05          0.000        0.000
  44                   JUNCTION        0.05          0.000        0.000
  46                   JUNCTION        0.05          0.000        0.000
  48                   JUNCTION        0.82          0.000        0.000
  50                   JUNCTION        0.05          0.000        0.000
  51                   JUNCTION        0.92          0.000        0.000
  56                   JUNCTION        0.05          0.000        0.000
  57                   JUNCTION        0.05          0.000        0.000
  60                   JUNCTION        0.88          0.000        0.000
  62                   JUNCTION        0.47          0.000        0.000
  
  
  *********************
  Node Flooding Summary
  *********************
  
  Flooding refers to all water that overflows a node, whether it ponds or not.
  --------------------------------------------------------------------------
                                                             Total   Maximum
                                 Maximum   Time of Max       Flood    Ponded
                        Hours       Rate    Occurrence      Volume     Depth
  Node                 Flooded       CFS   days hr:min    10^6 gal      Feet
  --------------------------------------------------------------------------
  3                       0.10      2.68      0  19:05       0.004     0.000
  7                       0.16      2.68      0  19:05       0.006     0.000
  8                       0.10      2.68      0  19:05       0.004     0.000
  17                      0.10      2.68      0  19:05       0.004     0.000
  21                      1.17      4.03      0  19:05       0.052     0.000
  24                      0.90      4.12      0  16:05       0.048     0.000
  26                      0.05      0.58      0  19:05       0.000     0.000
  28                      0.05      0.58      0  19:05       0.000     0.000
  30                      1.27      3.37      0  19:05       0.035     0.000
  34                      0.05      0.58      0  19:05       0.000     0.000
  36                      0.05      0.58      0  19:05       0.000     0.000
  38                     10.87      6.92      0  15:05       0.340     0.000
  40                      0.90      4.12      0  16:05       0.048     0.000
  42                      0.05      0.58      0  19:05       0.000     0.000
  44                      0.05      0.58      0  19:05       0.000     0.000
  46                      0.05      0.58      0  19:05       0.000     0.000
  48                      0.82      3.78      0  19:05       0.029     0.000
  50                      0.05      0.58      0  19:05       0.000     0.000
  51                      0.92      4.20      0  16:05       0.050     0.000
  56                      0.05      0.58      0  19:05       0.000     0.000
  57                      0.05      0.58      0  19:05       0.000     0.000
  60                      0.88      3.26      0  19:05       0.029     0.000
  62                      0.47      2.84      0  19:06       0.017     0.000
  
  
  **********************
  Storage Volume Summary
  **********************
  
  ------------------------------------------------------------------------------------------------
                         Average    Avg   Evap  Exfil     Maximum    Max    Time of Max    Maximum
                          Volume   Pcnt   Pcnt   Pcnt      Volume   Pcnt     Occurrence    Outflow
  Storage Unit          1000 ft³   Full   Loss   Loss    1000 ft³   Full    days hr:min        CFS
  ------------------------------------------------------------------------------------------------
  20                       1.579   15.8    0.0    0.0       3.633   36.3       0  19:14       1.85
  
  
  ***********************
  Outfall Loading Summary
  ***********************
  
  -----------------------------------------------------------
                         Flow       Avg       Max       Total
                         Freq      Flow      Flow      Volume
  Outfall Node           Pcnt       CFS       CFS    10^6 gal
  -----------------------------------------------------------
  1                     95.32      1.72      8.34       1.009
  -----------------------------------------------------------
  System                95.32      1.72      8.34       1.009
  
  
  ********************
  Link Flow Summary
  ********************
  
  -----------------------------------------------------------------------------
                                 Maximum  Time of Max   Maximum    Max/    Max/
                                  |Flow|   Occurrence   |Veloc|    Full    Full
  Link                 Type          CFS  days hr:min    ft/sec    Flow   Depth
  -----------------------------------------------------------------------------
  20                   CONDUIT      8.34     0  15:05     10.51    0.43    0.47
  21                   CONDUIT     12.02     0  19:05      8.08    0.62    0.79
  22                   CONDUIT      2.96     0  19:03      6.42    0.45    0.66
  23                   CONDUIT      2.91     0  17:04      6.52    0.44    0.66
  24                   CONDUIT      3.48     0  19:05      5.46    0.53    0.76
  25                   CONDUIT      2.89     0  18:05      4.75    0.44    0.73
  26                   CONDUIT      7.01     0  16:05      9.09    1.07    1.00
  27                   CONDUIT      3.48     0  19:05      5.46    0.53    0.76
  28                   CONDUIT      2.89     0  18:05      4.75    0.44    0.73
  29                   CONDUIT      3.48     0  19:05      5.45    0.53    0.76
  33                   CONDUIT      6.26     0  19:05      8.48    0.96    0.89
  34                   CONDUIT      2.92     0  15:05      7.60    0.45    0.62
  37                   CONDUIT      3.48     0  19:05      5.45    0.53    0.76
  38                   CONDUIT      2.91     0  16:04      6.63    0.44    0.66
  39                   CONDUIT      3.48     0  19:05      5.46    0.53    0.76
  40                   CONDUIT      2.89     0  18:05      4.75    0.44    0.73
  41                   CONDUIT      7.01     0  16:05      9.09    1.07    1.00
  42                   CONDUIT      2.86     0  19:03     11.36    0.44    0.41
  43                   CONDUIT      1.85     0  19:14      4.12    0.28    0.56
  44                   CONDUIT      1.85     0  19:15      6.59    0.28    0.53
  45                   CONDUIT      6.66     0  19:05      8.82    1.02    0.92
  46                   CONDUIT      3.48     0  19:05      5.46    0.53    0.76
  47                   CONDUIT      2.89     0  19:04      5.74    0.44    0.65
  48                   CONDUIT      3.48     0  19:05      5.46    0.53    0.76
  49                   CONDUIT      2.89     0  18:05      4.75    0.44    0.73
  50                   CONDUIT      3.48     0  19:05      5.46    0.53    0.76
  51                   CONDUIT      2.89     0  18:05      4.75    0.44    0.73
  52                   CONDUIT      7.01     0  16:05      9.09    1.07    1.00
  53                   CONDUIT      2.95     0  19:03      6.72    0.45    0.73
  54                   CONDUIT      7.03     0  15:05      9.10    1.07    1.00
  55                   CONDUIT      0.11     0  03:17      2.85    0.02    0.43
  56                   CONDUIT      3.48     0  19:05      5.46    0.53    0.76
  57                   CONDUIT      2.89     0  18:05      4.75    0.44    0.73
  58                   CONDUIT      3.48     0  19:05      5.46    0.53    0.76
  59                   CONDUIT      2.89     0  19:04      4.69    0.44    0.73
  60                   CONDUIT      6.15     0  19:05      8.37    0.94    0.89
  61                   CONDUIT      2.89     0  19:04      6.39    0.44    0.59
  62                   CONDUIT      2.89     0  19:04      6.39    0.44    0.59
  63                   CONDUIT      5.73     0  19:06      7.95    0.87    0.86
  65                   CONDUIT      2.96     0  18:04      7.23    0.45    0.62
  6                    WEIR         2.89     0  19:04                      1.00
  7                    WEIR         2.90     0  19:04                      1.00
  8                    WEIR         2.90     0  15:05                      1.00
  9                    WEIR         2.90     0  15:04                      1.00
  10                   WEIR         8.01     0  16:05                      1.00
  11                   WEIR         2.89     0  19:04                      1.00
  12                   WEIR         2.89     0  19:04                      1.00
  13                   WEIR         2.90     0  12:04                      1.00
  14                   WEIR         2.89     0  19:04                      1.00
  15                   WEIR         2.89     0  19:04                      1.00
  16                   WEIR         2.90     0  12:04                      1.00
  17                   WEIR         0.11     0  02:13                      1.00
  18                   WEIR         2.89     0  19:04                      1.00
  19                   WEIR         2.89     0  19:04                      1.00
  30                   WEIR         2.89     0  19:04                      1.00
  31                   WEIR         2.89     0  19:04                      1.00
  32                   WEIR         2.84     0  19:10                      1.00
  35                   WEIR         1.85     0  19:15                      0.75
  36                   WEIR         2.89     0  19:04                      1.00
  64                   WEIR         2.90     0  17:03                      1.00
  
  
  ***************************
  Flow Classification Summary
  ***************************
  
  -------------------------------------------------------------------------------------
                      Adjusted    ---------- Fraction of Time in Flow Class ---------- 
                       /Actual         Up    Down  Sub   Sup   Up    Down  Norm  Inlet 
  Conduit               Length    Dry  Dry   Dry   Crit  Crit  Crit  Crit  Ltd   Ctrl  
  -------------------------------------------------------------------------------------
  20                      1.00   0.04  0.00  0.00  0.00  0.95  0.00  0.00  0.59  0.00
  21                      1.00   0.04  0.00  0.00  0.00  0.96  0.00  0.00  0.95  0.00
  22                      1.00   0.04  0.00  0.00  0.73  0.23  0.00  0.00  0.95  0.00
  23                      1.00   0.04  0.00  0.00  0.08  0.87  0.00  0.00  0.83  0.00
  24                      1.00   0.04  0.00  0.00  0.00  0.95  0.00  0.00  0.93  0.00
  25                      1.00   0.04  0.00  0.00  0.23  0.73  0.00  0.00  0.96  0.00
  26                      1.00   0.04  0.00  0.00  0.01  0.94  0.00  0.00  0.91  0.00
  27                      1.00   0.04  0.00  0.00  0.00  0.95  0.00  0.00  0.93  0.00
  28                      1.00   0.04  0.00  0.00  0.23  0.73  0.00  0.00  0.96  0.00
  29                      1.00   0.04  0.00  0.00  0.00  0.95  0.00  0.00  0.93  0.00
  33                      1.00   0.04  0.00  0.00  0.01  0.95  0.00  0.00  0.95  0.00
  34                      1.00   0.04  0.00  0.00  0.02  0.94  0.00  0.00  0.95  0.00
  37                      1.00   0.04  0.00  0.00  0.00  0.95  0.00  0.00  0.93  0.00
  38                      1.00   0.04  0.00  0.00  0.19  0.77  0.00  0.00  0.96  0.00
  39                      1.00   0.04  0.00  0.00  0.00  0.95  0.00  0.00  0.93  0.00
  40                      1.00   0.04  0.00  0.00  0.23  0.73  0.00  0.00  0.96  0.00
  41                      1.00   0.04  0.00  0.00  0.02  0.94  0.00  0.00  0.92  0.00
  42                      1.00   0.04  0.00  0.00  0.53  0.43  0.00  0.00  0.71  0.00
  43                      1.00   0.05  0.00  0.00  0.01  0.94  0.00  0.00  0.89  0.00
  44                      1.00   0.04  0.01  0.00  0.13  0.81  0.00  0.00  0.94  0.00
  45                      1.00   0.04  0.00  0.00  0.01  0.95  0.00  0.00  0.94  0.00
  46                      1.00   0.04  0.00  0.00  0.00  0.95  0.00  0.00  0.93  0.00
  47                      1.00   0.04  0.00  0.00  0.76  0.20  0.00  0.00  0.96  0.00
  48                      1.00   0.04  0.00  0.00  0.00  0.95  0.00  0.00  0.93  0.00
  49                      1.00   0.04  0.00  0.00  0.23  0.73  0.00  0.00  0.96  0.00
  50                      1.00   0.04  0.00  0.00  0.00  0.95  0.00  0.00  0.93  0.00
  51                      1.00   0.04  0.00  0.00  0.23  0.73  0.00  0.00  0.96  0.00
  52                      1.00   0.04  0.00  0.00  0.01  0.94  0.00  0.00  0.91  0.00
  53                      1.00   0.04  0.00  0.00  0.04  0.92  0.00  0.00  0.95  0.00
  54                      1.00   0.04  0.00  0.00  0.89  0.06  0.00  0.00  0.94  0.00
  55                      1.00   0.04  0.05  0.00  0.24  0.67  0.00  0.00  0.90  0.00
  56                      1.00   0.04  0.00  0.00  0.00  0.95  0.00  0.00  0.93  0.00
  57                      1.00   0.04  0.00  0.00  0.23  0.73  0.00  0.00  0.96  0.00
  58                      1.00   0.04  0.00  0.00  0.00  0.95  0.00  0.00  0.93  0.00
  59                      1.00   0.04  0.00  0.00  0.91  0.05  0.00  0.00  0.96  0.00
  60                      1.00   0.04  0.00  0.00  0.01  0.95  0.00  0.00  0.94  0.00
  61                      1.00   0.04  0.00  0.00  0.08  0.88  0.00  0.00  0.92  0.00
  62                      1.00   0.04  0.00  0.00  0.08  0.88  0.00  0.00  0.92  0.00
  63                      1.00   0.05  0.00  0.00  0.01  0.95  0.00  0.00  0.92  0.00
  65                      1.00   0.04  0.00  0.00  0.45  0.50  0.00  0.00  0.95  0.00
  
  
  *************************
  Conduit Surcharge Summary
  *************************
  
  ----------------------------------------------------------------------------
                                                           Hours        Hours 
                         --------- Hours Full --------   Above Full   Capacity
  Conduit                Both Ends  Upstream  Dnstream   Normal Flow   Limited
  ----------------------------------------------------------------------------
  21                          0.01      0.01      1.17      0.01         0.01
  24                          0.01      0.01      0.05      0.01         0.01
  25                          0.01      0.01      0.10      0.01         0.01
  26                          0.10      0.10      0.91      0.15         0.01
  27                          0.01      0.01      0.05      0.01         0.01
  28                          0.01      0.01      0.10      0.01         0.01
  29                          0.01      0.01      0.05      0.01         0.01
  33                          0.01      0.01      1.27      0.01         0.01
  37                          0.01      0.01      0.05      0.01         0.01
  39                          0.01      0.01      0.05      0.01         0.01
  40                          0.01      0.01      0.10      0.01         0.01
  41                          0.10      0.10      0.92      0.15         0.01
  45                          0.01      0.01      0.83      0.01         0.01
  46                          0.01      0.01      0.05      0.01         0.01
  48                          0.01      0.01      0.05      0.01         0.01
  49                          0.01      0.01      0.10      0.01         0.01
  50                          0.01      0.01      0.05      0.01         0.01
  51                          0.01      0.01      0.10      0.01         0.01
  52                          0.10      0.10      0.91      0.15         0.01
  53                          0.01      0.01      0.16      0.01         0.01
  54                          0.16      0.16     10.89      0.23         0.01
  56                          0.01      0.01      0.05      0.01         0.01
  57                          0.01      0.01      0.10      0.01         0.01
  58                          0.01      0.01      0.05      0.01         0.01
  59                          0.01      0.01      0.16      0.01         0.01
  60                          0.01      0.01      0.88      0.01         0.01
  63                          0.01      0.01      0.48      0.01         0.01
  

  Analysis begun on:  Mon May  6 16:03:22 2024
  Analysis ended on:  Mon May  6 16:03:23 2024
  Total elapsed time: 00:00:01