
  EPA STORM WATER MANAGEMENT MODEL - VERSION 5.2 (Build 5.2.3)
  ------------------------------------------------------------

  WARNING 04: minimum elevation drop used for Conduit 1
  WARNING 04: minimum elevation drop used for Conduit 2
  WARNING 04: minimum elevation drop used for Conduit 3
  WARNING 04: minimum elevation drop used for Conduit 4
  
  ****************
  Analysis Options
  ****************
  Flow Units ............... CFS
  Process Models:
    Rainfall/Runoff ........ NO
    RDII ................... NO
    Snowmelt ............... NO
    Groundwater ............ NO
    Flow Routing ........... YES
    Ponding Allowed ........ NO
    Water Quality .......... NO
  Flow Routing Method ...... DYNWAVE
  Surcharge Method ......... EXTRAN
  Starting Date ............ 01/01/2020 00:00:00
  Ending Date .............. 01/02/2020 06:00:00
  Antecedent Dry Days ...... 0.0
  Report Time Step ......... 00:00:10
  Routing Time Step ........ 0.50 sec
  Variable Time Step ....... NO
  Maximum Trials ........... 8
  Number of Threads ........ 1
  Head Tolerance ........... 0.005000 ft
  
  
  **************************        Volume        Volume
  Flow Routing Continuity        acre-feet      10^6 gal
  **************************     ---------     ---------
  Dry Weather Inflow .......         0.000         0.000
  Wet Weather Inflow .......         0.000         0.000
  Groundwater Inflow .......         0.000         0.000
  RDII Inflow ..............         0.000         0.000
  External Inflow ..........         0.545         0.177
  External Outflow .........         0.542         0.177
  Flooding Loss ............         0.002         0.001
  Evaporation Loss .........         0.000         0.000
  Exfiltration Loss ........         0.000         0.000
  Initial Stored Volume ....         0.000         0.000
  Final Stored Volume ......         0.000         0.000
  Continuity Error (%) .....        -0.022
  
  
  ********************************
  Highest Flow Instability Indexes
  ********************************
  All links are stable.
  
  
  *********************************
  Most Frequent Nonconverging Nodes
  *********************************
  Node 10 (0.02%)
  Node 42 (0.01%)
  Node 43 (0.01%)
  Node 45 (0.01%)
  Node 46 (0.01%)
  
  
  *************************
  Routing Time Step Summary
  *************************
  Minimum Time Step           :     0.50 sec
  Average Time Step           :     0.50 sec
  Maximum Time Step           :     0.50 sec
  % of Time in Steady State   :     0.00
  Average Iterations per Step :     2.00
  % of Steps Not Converging   :     0.02
  
  
  ******************
  Node Depth Summary
  ******************
  
  ---------------------------------------------------------------------------------
                                 Average  Maximum  Maximum  Time of Max    Reported
                                   Depth    Depth      HGL   Occurrence   Max Depth
  Node                 Type         Feet     Feet     Feet  days hr:min        Feet
  ---------------------------------------------------------------------------------
  38                   JUNCTION     0.04     0.36    10.36     0  23:04        0.36
  39                   JUNCTION     0.08     0.57     8.57     0  18:04        0.57
  40                   JUNCTION     0.07     0.56     8.56     0  18:04        0.56
  41                   JUNCTION     0.11     1.98     7.98     0  18:04        1.60
  42                   JUNCTION     0.10     1.96     7.96     0  18:04        1.58
  43                   JUNCTION     0.13     2.07     6.07     0  18:04        2.05
  44                   JUNCTION     0.11     2.00     6.00     0  18:03        2.00
  45                   JUNCTION     0.15     2.07     4.07     0  18:03        2.06
  46                   JUNCTION     0.14     2.00     4.00     0  18:03        2.00
  10                   OUTFALL      0.11     0.72     0.72     0  18:04        0.72
  
  
  *******************
  Node Inflow Summary
  *******************
  
  -------------------------------------------------------------------------------------------------
                                  Maximum  Maximum                  Lateral       Total        Flow
                                  Lateral    Total  Time of Max      Inflow      Inflow     Balance
                                   Inflow   Inflow   Occurrence      Volume      Volume       Error
  Node                 Type           CFS      CFS  days hr:min    10^6 gal    10^6 gal     Percent
  -------------------------------------------------------------------------------------------------
  38                   JUNCTION      0.62     0.62     0  15:36      0.0383      0.0383      -0.164
  39                   JUNCTION      0.00     0.61     0  23:04           0      0.0387       0.167
  40                   JUNCTION      0.70     1.31     0  18:04      0.0315      0.0702      -0.072
  41                   JUNCTION      0.00     1.31     0  18:04           0      0.0701       0.061
  42                   JUNCTION      0.69     1.92     0  18:04      0.0376       0.108      -0.046
  43                   JUNCTION      0.00     1.95     0  18:04           0       0.108       0.036
  44                   JUNCTION      0.70     2.63     0  18:04      0.0334       0.141      -0.035
  45                   JUNCTION      0.00     2.18     0  18:10           0        0.14       0.027
  46                   JUNCTION      0.70     2.85     0  18:06      0.0368       0.177      -0.005
  10                   OUTFALL       0.00     2.80     0  18:04           0       0.177       0.000
  
  
  **********************
  Node Surcharge Summary
  **********************
  
  Surcharging occurs when water rises above the top of the highest conduit.
  ---------------------------------------------------------------------
                                               Max. Height   Min. Depth
                                   Hours       Above Crown    Below Rim
  Node                 Type      Surcharged           Feet         Feet
  ---------------------------------------------------------------------
  41                   JUNCTION        0.08          0.983       10.017
  42                   JUNCTION        0.08          0.957        0.043
  43                   JUNCTION        0.14          1.070        9.930
  44                   JUNCTION        0.14          1.000        0.000
  45                   JUNCTION        0.18          1.074        9.926
  46                   JUNCTION        0.17          1.000        0.000
  
  
  *********************
  Node Flooding Summary
  *********************
  
  Flooding refers to all water that overflows a node, whether it ponds or not.
  --------------------------------------------------------------------------
                                                             Total   Maximum
                                 Maximum   Time of Max       Flood    Ponded
                        Hours       Rate    Occurrence      Volume     Depth
  Node                 Flooded       CFS   days hr:min    10^6 gal      Feet
  --------------------------------------------------------------------------
  44                      0.09      0.48      0  18:04       0.001     0.000
  46                      0.08      0.06      0  18:03       0.000     0.000
  
  
  ***********************
  Outfall Loading Summary
  ***********************
  
  -----------------------------------------------------------
                         Flow       Avg       Max       Total
                         Freq      Flow      Flow      Volume
  Outfall Node           Pcnt       CFS       CFS    10^6 gal
  -----------------------------------------------------------
  10                    54.63      0.40      2.80       0.177
  -----------------------------------------------------------
  System                54.63      0.40      2.80       0.177
  
  
  ********************
  Link Flow Summary
  ********************
  
  -----------------------------------------------------------------------------
                                 Maximum  Time of Max   Maximum    Max/    Max/
                                  |Flow|   Occurrence   |Veloc|    Full    Full
  Link                 Type          CFS  days hr:min    ft/sec    Flow   Depth
  -----------------------------------------------------------------------------
  14                   CONDUIT      0.61     0  23:04      2.17    0.28    0.47
  15                   CONDUIT      1.31     0  18:04      2.44    0.60    0.78
  16                   CONDUIT      1.95     0  18:04      2.66    0.89    1.00
  17                   CONDUIT      2.18     0  18:10      2.83    1.00    1.00
  18                   CONDUIT      2.80     0  18:04      3.90    1.28    0.86
  1                    CONDUIT      0.61     0  23:04      2.38    2.16    0.56
  2                    CONDUIT      1.33     0  18:04      2.26    4.73    1.00
  3                    CONDUIT      1.95     0  18:04      2.65    6.92    1.00
  4                    CONDUIT      2.18     0  18:10      2.78    7.74    1.00
  
  
  ***************************
  Flow Classification Summary
  ***************************
  
  -------------------------------------------------------------------------------------
                      Adjusted    ---------- Fraction of Time in Flow Class ---------- 
                       /Actual         Up    Down  Sub   Sup   Up    Down  Norm  Inlet 
  Conduit               Length    Dry  Dry   Dry   Crit  Crit  Crit  Crit  Ltd   Ctrl  
  -------------------------------------------------------------------------------------
  14                      1.00   0.12  0.39  0.00  0.49  0.00  0.00  0.00  0.86  0.00
  15                      1.00   0.12  0.25  0.00  0.63  0.00  0.00  0.00  0.86  0.00
  16                      1.00   0.12  0.21  0.00  0.68  0.00  0.00  0.00  0.86  0.00
  17                      1.00   0.12  0.18  0.00  0.71  0.00  0.00  0.00  0.86  0.00
  18                      1.00   0.12  0.00  0.00  0.82  0.07  0.00  0.00  0.00  0.00
  1                       1.00   0.12  0.00  0.00  0.88  0.00  0.00  0.00  0.00  0.00
  2                       1.00   0.12  0.00  0.00  0.88  0.00  0.00  0.00  0.00  0.00
  3                       1.00   0.12  0.00  0.00  0.88  0.00  0.00  0.00  0.00  0.00
  4                       1.00   0.12  0.00  0.00  0.88  0.00  0.00  0.00  0.00  0.00
  
  
  *************************
  Conduit Surcharge Summary
  *************************
  
  ----------------------------------------------------------------------------
                                                           Hours        Hours 
                         --------- Hours Full --------   Above Full   Capacity
  Conduit                Both Ends  Upstream  Dnstream   Normal Flow   Limited
  ----------------------------------------------------------------------------
  15                          0.01      0.01      0.08      0.01         0.01
  16                          0.08      0.08      0.14      0.01         0.01
  17                          0.14      0.14      0.18      0.01         0.01
  18                          0.01      0.17      0.01      0.21         0.01
  1                           0.01      0.01      0.01      2.17         0.01
  2                           0.08      0.08      0.08      3.87         0.08
  3                           0.14      0.14      0.14      5.36         0.14
  4                           0.17      0.18      0.17      5.84         0.17
  

  Analysis begun on:  Thu Mar  6 10:12:27 2025
  Analysis ended on:  Thu Mar  6 10:12:31 2025
  Total elapsed time: 00:00:04