
  OWA STORM WATER MANAGEMENT MODEL - VERSION v5.2.3 (OWA 2023-03-28)
  ------------------------------------------------------------


  Analysis begun on:  Mon Mar 10 14:29:03 2025
  Analysis ended on:  Mon Mar 10 14:29:03 2025
  Total elapsed time: < 1 sec