
  OWA STORM WATER MANAGEMENT MODEL - VERSION v5.2.3 (OWA 2023-03-28)
  ------------------------------------------------------------

  
  ****************
  Analysis Options
  ****************
  Flow Units ............... CFS
  Process Models:
    Rainfall/Runoff ........ YES
    RDII ................... NO
    Snowmelt ............... NO
    Groundwater ............ NO
    Flow Routing ........... YES
    Ponding Allowed ........ NO
    Water Quality .......... NO
  Infiltration Method ...... HORTON
  Flow Routing Method ...... DYNWAVE
  Surcharge Method ......... EXTRAN
  Starting Date ............ 01/01/2020 00:00:00
  Ending Date .............. 01/01/2020 23:00:00
  Antecedent Dry Days ...... 0.0
  Report Time Step ......... 00:01:00
  Wet Time Step ............ 00:01:00
  Dry Time Step ............ 00:01:00
  Routing Time Step ........ 10.00 sec
  Variable Time Step ....... YES
  Maximum Trials ........... 8
  Number of Threads ........ 1
  Head Tolerance ........... 0.005000 ft
  
  
  **************************        Volume         Depth
  Runoff Quantity Continuity     acre-feet        inches
  **************************     ---------       -------
  Total Precipitation ......         6.672         0.843
  Evaporation Loss .........         0.000         0.000
  Infiltration Loss ........         5.004         0.632
  Surface Runoff ...........         1.598         0.202
  Final Storage ............         0.075         0.009
  Continuity Error (%) .....        -0.072
  
  
  **************************        Volume        Volume
  Flow Routing Continuity        acre-feet      10^6 gal
  **************************     ---------     ---------
  Dry Weather Inflow .......         0.000         0.000
  Wet Weather Inflow .......         1.598         0.521
  Groundwater Inflow .......         0.000         0.000
  RDII Inflow ..............         0.000         0.000
  External Inflow ..........         0.000         0.000
  External Outflow .........         1.579         0.514
  Flooding Loss ............         0.003         0.001
  Evaporation Loss .........         0.000         0.000
  Exfiltration Loss ........         0.000         0.000
  Initial Stored Volume ....         0.000         0.000
  Final Stored Volume ......         0.016         0.005
  Continuity Error (%) .....         0.002
  
  
  ***************************
  Time-Step Critical Elements
  ***************************
  None
  
  
  ********************************
  Highest Flow Instability Indexes
  ********************************
  All links are stable.
  
  
  *********************************
  Most Frequent Nonconverging Nodes
  *********************************
  Convergence obtained at all time steps.
  
  
  *************************
  Routing Time Step Summary
  *************************
  Minimum Time Step           :     9.50 sec
  Average Time Step           :    10.00 sec
  Maximum Time Step           :    10.00 sec
  % of Time in Steady State   :     0.00
  Average Iterations per Step :     2.00
  % of Steps Not Converging   :     0.00
  Time Step Frequencies       :
     10.000 -  5.493 sec      :   100.00 %
      5.493 -  3.017 sec      :     0.00 %
      3.017 -  1.657 sec      :     0.00 %
      1.657 -  0.910 sec      :     0.00 %
      0.910 -  0.500 sec      :     0.00 %
  
  
  ***************************
  Subcatchment Runoff Summary
  ***************************
  
  ------------------------------------------------------------------------------------------------------------------------------
                            Total      Total      Total      Total     Imperv       Perv      Total       Total     Peak  Runoff
                           Precip      Runon       Evap      Infil     Runoff     Runoff     Runoff      Runoff   Runoff   Coeff
  Subcatchment                 in         in         in         in         in         in         in    10^6 gal      CFS
  ------------------------------------------------------------------------------------------------------------------------------
  65                         0.84       0.00       0.00       0.63       0.20       0.00       0.20        0.03     0.75   0.239
  66                         0.84       0.00       0.00       0.63       0.20       0.00       0.20        0.03     0.75   0.239
  67                         0.84       0.00       0.00       0.63       0.20       0.00       0.20        0.03     0.75   0.239
  68                         0.84       0.00       0.00       0.63       0.20       0.00       0.20        0.03     0.75   0.239
  69                         0.84       0.00       0.00       0.63       0.20       0.00       0.20        0.03     0.75   0.239
  70                         0.84       0.00       0.00       0.63       0.20       0.00       0.20        0.03     0.75   0.239
  71                         0.84       0.00       0.00       0.63       0.20       0.00       0.20        0.03     0.75   0.239
  72                         0.84       0.00       0.00       0.63       0.20       0.00       0.20        0.03     0.75   0.239
  73                         0.84       0.00       0.00       0.63       0.20       0.00       0.20        0.03     0.75   0.239
  74                         0.84       0.00       0.00       0.63       0.20       0.00       0.20        0.03     0.75   0.239
  75                         0.84       0.00       0.00       0.63       0.20       0.00       0.20        0.03     0.75   0.239
  76                         0.84       0.00       0.00       0.63       0.20       0.00       0.20        0.03     0.75   0.239
  77                         0.84       0.00       0.00       0.63       0.20       0.00       0.20        0.03     0.75   0.239
  78                         0.84       0.00       0.00       0.63       0.20       0.00       0.20        0.03     0.75   0.239
  79                         0.84       0.00       0.00       0.63       0.20       0.00       0.20        0.03     0.75   0.239
  80                         0.84       0.00       0.00       0.63       0.20       0.00       0.20        0.03     0.75   0.239
  81                         0.84       0.00       0.00       0.63       0.20       0.00       0.20        0.03     0.75   0.239
  82                         0.84       0.00       0.00       0.63       0.20       0.00       0.20        0.03     0.75   0.239
  83                         0.84       0.00       0.00       0.63       0.20       0.00       0.20        0.03     0.75   0.239
  
  
  ******************
  Node Depth Summary
  ******************
  
  ---------------------------------------------------------------------------------
                                 Average  Maximum  Maximum  Time of Max    Reported
                                   Depth    Depth      HGL   Occurrence   Max Depth
  Node                 Type         Feet     Feet     Feet  days hr:min        Feet
  ---------------------------------------------------------------------------------
  2                    JUNCTION     0.24     0.75    10.75     0  16:10        0.75
  3                    JUNCTION     0.07     0.31    20.31     0  16:06        0.30
  4                    JUNCTION     0.05     0.25    30.25     0  16:05        0.24
  5                    JUNCTION     0.06     0.28    30.28     0  16:05        0.27
  6                    JUNCTION     0.19     0.69    20.69     0  16:10        0.69
  7                    JUNCTION     0.20     0.88    40.88     0  16:08        0.88
  8                    JUNCTION     0.08     0.36    50.36     0  16:06        0.35
  9                    JUNCTION     0.03     0.16    60.16     0  16:05        0.15
  10                   JUNCTION     0.05     0.23    60.23     0  16:05        0.23
  11                   JUNCTION     0.05     0.25    50.25     0  16:05        0.24
  13                   JUNCTION     0.04     0.19    50.19     0  16:05        0.18
  14                   JUNCTION     0.05     0.26    50.26     0  16:05        0.25
  15                   JUNCTION     0.16     0.38    20.38     0  16:07        0.38
  16                   JUNCTION     0.06     0.30    30.30     0  16:05        0.29
  17                   JUNCTION     0.10     0.47    40.47     0  16:06        0.47
  18                   JUNCTION     0.05     0.26    50.26     0  16:05        0.25
  19                   JUNCTION     0.04     0.21    50.21     0  16:05        0.21
  21                   JUNCTION     0.35     1.29     6.29     0  16:11        1.29
  22                   JUNCTION     0.25     0.88     5.88     0  16:11        0.87
  23                   JUNCTION     0.07     0.33    15.33     0  16:07        0.33
  24                   JUNCTION     0.12     0.71    15.71     0  16:07        0.70
  25                   JUNCTION     0.05     0.23    25.23     0  16:06        0.22
  26                   JUNCTION     0.06     0.39    25.39     0  16:06        0.39
  27                   JUNCTION     0.04     0.17    25.17     0  16:06        0.17
  28                   JUNCTION     0.06     0.37    25.37     0  16:06        0.37
  29                   JUNCTION     0.14     0.46    15.46     0  16:10        0.46
  30                   JUNCTION     0.24     1.07    16.07     0  16:10        1.07
  31                   JUNCTION     0.15     0.54    25.54     0  16:09        0.54
  33                   JUNCTION     0.03     0.15    45.15     0  16:06        0.15
  34                   JUNCTION     0.05     0.37    45.37     0  16:05        0.37
  35                   JUNCTION     0.05     0.24    45.24     0  16:06        0.24
  36                   JUNCTION     0.07     0.39    45.39     0  16:06        0.39
  37                   JUNCTION     0.12     0.51    35.51     0  16:09        0.51
  38                   JUNCTION     0.17     0.92    35.92     0  16:09        0.91
  39                   JUNCTION     0.09     0.42    45.42     0  16:07        0.42
  40                   JUNCTION     0.13     0.74    45.74     0  16:07        0.73
  41                   JUNCTION     0.06     0.26    55.26     0  16:06        0.26
  42                   JUNCTION     0.07     0.40    55.40     0  16:06        0.40
  43                   JUNCTION     0.04     0.17    55.17     0  16:06        0.17
  44                   JUNCTION     0.06     0.37    55.37     0  16:06        0.37
  45                   JUNCTION     0.03     0.15    45.15     0  16:06        0.15
  46                   JUNCTION     0.05     0.37    45.37     0  16:06        0.37
  47                   JUNCTION     0.13     0.29    15.29     0  16:08        0.29
  48                   JUNCTION     0.20     0.57    15.57     0  16:08        0.57
  49                   JUNCTION     0.05     0.24    25.24     0  16:06        0.24
  50                   JUNCTION     0.07     0.39    25.39     0  16:06        0.39
  51                   JUNCTION     0.11     0.70    35.70     0  16:07        0.69
  52                   JUNCTION     0.07     0.31    35.31     0  16:07        0.31
  53                   JUNCTION     0.18     0.31    25.31     0  09:20        0.31
  54                   JUNCTION     0.14     0.23    25.23     0  09:20        0.23
  55                   JUNCTION     0.05     0.23    45.23     0  16:06        0.23
  56                   JUNCTION     0.06     0.40    45.40     0  16:06        0.40
  57                   JUNCTION     0.06     0.39    45.39     0  16:06        0.39
  58                   JUNCTION     0.05     0.22    45.22     0  16:06        0.22
  59                   JUNCTION     0.10     0.38    30.38     0  16:09        0.38
  60                   JUNCTION     0.23     1.19    26.19     0  16:09        1.19
  61                   JUNCTION     0.08     0.33    35.33     0  16:08        0.33
  62                   JUNCTION     0.10     0.56    35.56     0  16:08        0.56
  63                   JUNCTION     0.06     0.26    40.26     0  16:07        0.26
  1                    OUTFALL      0.25     0.94     0.94     0  16:11        0.94
  20                   STORAGE      0.13     0.21    30.21     0  09:19        0.21
  
  
  *******************
  Node Inflow Summary
  *******************
  
  -------------------------------------------------------------------------------------------------
                                  Maximum  Maximum                  Lateral       Total        Flow
                                  Lateral    Total  Time of Max      Inflow      Inflow     Balance
                                   Inflow   Inflow   Occurrence      Volume      Volume       Error
  Node                 Type           CFS      CFS  days hr:min    10^6 gal    10^6 gal     Percent
  -------------------------------------------------------------------------------------------------
  2                    JUNCTION      0.75     5.53     0  16:10      0.0274       0.515       0.031
  3                    JUNCTION      0.75     1.86     0  16:06      0.0274      0.0822      -0.194
  4                    JUNCTION      0.75     0.75     0  16:05      0.0274      0.0274      -0.389
  5                    JUNCTION      0.75     0.75     0  16:05      0.0274      0.0274      -0.548
  6                    JUNCTION      0.75     3.17     0  16:09      0.0274       0.246      -0.039
  7                    JUNCTION      0.75     2.70     0  16:07      0.0274       0.137      -0.059
  8                    JUNCTION      0.75     1.85     0  16:06      0.0274      0.0822      -0.137
  9                    JUNCTION      0.75     0.75     0  16:05      0.0274      0.0274      -0.333
  10                   JUNCTION      0.75     0.75     0  16:05      0.0274      0.0274      -0.436
  11                   JUNCTION      0.75     0.75     0  16:05      0.0274      0.0274      -0.414
  13                   JUNCTION      0.75     0.75     0  16:05      0.0274      0.0274      -0.255
  14                   JUNCTION      0.75     0.75     0  16:05      0.0274      0.0274      -0.555
  15                   JUNCTION      0.75     1.35     0  16:05      0.0274        0.16      -0.004
  16                   JUNCTION      0.75     0.75     0  16:05      0.0274      0.0274      -0.521
  17                   JUNCTION      0.75     1.88     0  16:06      0.0274      0.0823      -0.104
  18                   JUNCTION      0.75     0.75     0  16:05      0.0274      0.0274      -0.388
  19                   JUNCTION      0.75     0.75     0  16:05      0.0274      0.0274      -0.340
  21                   JUNCTION      0.00     5.36     0  16:10           0       0.515       0.014
  22                   JUNCTION      0.00     5.33     0  16:11           0       0.515       0.031
  23                   JUNCTION      0.00     1.72     0  16:07           0      0.0822      -0.175
  24                   JUNCTION      0.00     1.82     0  16:06           0      0.0824       0.187
  25                   JUNCTION      0.00     0.66     0  16:06           0      0.0274      -0.012
  26                   JUNCTION      0.00     0.73     0  16:05           0      0.0275       0.389
  27                   JUNCTION      0.00     0.64     0  16:06           0      0.0274       0.030
  28                   JUNCTION      0.00     0.72     0  16:05           0      0.0276       0.548
  29                   JUNCTION      0.00     2.93     0  16:10           0       0.245       0.018
  30                   JUNCTION      0.00     3.11     0  16:11           0       0.246       0.027
  31                   JUNCTION      0.00     2.90     0  16:09           0       0.218       0.015
  33                   JUNCTION      0.00     0.68     0  16:05           0      0.0274      -0.294
  34                   JUNCTION      0.00     0.74     0  16:05           0      0.0275       0.251
  35                   JUNCTION      0.00     0.63     0  16:06           0      0.0274      -0.241
  36                   JUNCTION      0.00     0.72     0  16:05           0      0.0276       0.557
  37                   JUNCTION      0.00     2.37     0  16:09           0       0.137       0.055
  38                   JUNCTION      0.00     2.42     0  16:09           0       0.137       0.178
  39                   JUNCTION      0.00     1.72     0  16:07           0      0.0822      -0.041
  40                   JUNCTION      0.00     1.78     0  16:06           0      0.0823       0.162
  41                   JUNCTION      0.00     0.64     0  16:06           0      0.0274      -0.036
  42                   JUNCTION      0.00     0.74     0  16:05           0      0.0275       0.330
  43                   JUNCTION      0.00     0.65     0  16:06           0      0.0274      -0.040
  44                   JUNCTION      0.00     0.73     0  16:05           0      0.0275       0.434
  45                   JUNCTION      0.00     0.66     0  16:06           0      0.0274      -0.419
  46                   JUNCTION      0.00     0.73     0  16:05           0      0.0275       0.412
  47                   JUNCTION      0.00     1.21     0  16:08           0        0.16      -0.015
  48                   JUNCTION      0.00     1.25     0  16:07           0        0.16       0.044
  49                   JUNCTION      0.00     0.65     0  16:06           0      0.0274      -0.080
  50                   JUNCTION      0.00     0.72     0  16:05           0      0.0275       0.523
  51                   JUNCTION      0.00     1.74     0  16:07           0      0.0824       0.191
  52                   JUNCTION      0.00     1.69     0  16:07           0      0.0822      -0.058
  53                   JUNCTION      0.00     0.38     0  09:19           0       0.105       0.027
  54                   JUNCTION      0.00     0.38     0  09:20           0       0.105       0.055
  55                   JUNCTION      0.00     0.67     0  16:06           0      0.0274      -0.112
  56                   JUNCTION      0.00     0.73     0  16:05           0      0.0275       0.388
  57                   JUNCTION      0.00     0.74     0  16:05           0      0.0275       0.337
  58                   JUNCTION      0.00     0.66     0  16:06           0      0.0274      -0.144
  59                   JUNCTION      0.75     3.68     0  16:09      0.0274       0.219      -0.068
  60                   JUNCTION      0.00     3.66     0  16:09           0       0.219       0.026
  61                   JUNCTION      0.00     1.12     0  16:08           0      0.0548      -0.009
  62                   JUNCTION      0.00     1.21     0  16:07           0       0.055       0.269
  63                   JUNCTION      0.00     1.28     0  16:06           0       0.055      -0.002
  1                    OUTFALL       0.00     5.33     0  16:11           0       0.514       0.000
  20                   STORAGE       0.75     2.09     0  16:07      0.0274        0.11       0.075
  
  
  **********************
  Node Surcharge Summary
  **********************
  
  Surcharging occurs when water rises above the top of the highest conduit.
  ---------------------------------------------------------------------
                                               Max. Height   Min. Depth
                                   Hours       Above Crown    Below Rim
  Node                 Type      Surcharged           Feet         Feet
  ---------------------------------------------------------------------
  30                   JUNCTION        0.07          0.000        0.000
  60                   JUNCTION        0.06          0.000        0.000
  
  
  *********************
  Node Flooding Summary
  *********************
  
  Flooding refers to all water that overflows a node, whether it ponds or not.
  --------------------------------------------------------------------------
                                                             Total   Maximum
                                 Maximum   Time of Max       Flood    Ponded
                        Hours       Rate    Occurrence      Volume     Depth
  Node                 Flooded       CFS   days hr:min    10^6 gal      Feet
  --------------------------------------------------------------------------
  30                      0.07      0.18      0  16:11       0.000     0.000
  60                      0.06      0.77      0  16:10       0.001     0.000
  
  
  **********************
  Storage Volume Summary
  **********************
  
  ------------------------------------------------------------------------------------------------
                         Average    Avg   Evap  Exfil     Maximum    Max    Time of Max    Maximum
                          Volume   Pcnt   Pcnt   Pcnt      Volume   Pcnt     Occurrence    Outflow
  Storage Unit          1000 ft³   Full   Loss   Loss    1000 ft³   Full    days hr:min        CFS
  ------------------------------------------------------------------------------------------------
  20                       1.348   13.5    0.0    0.0       2.121   21.2       0  09:19       0.38
  
  
  ***********************
  Outfall Loading Summary
  ***********************
  
  -----------------------------------------------------------
                         Flow       Avg       Max       Total
                         Freq      Flow      Flow      Volume
  Outfall Node           Pcnt       CFS       CFS    10^6 gal
  -----------------------------------------------------------
  1                     99.71      0.83      5.33       0.514
  -----------------------------------------------------------
  System                99.71      0.83      5.33       0.514
  
  
  ********************
  Link Flow Summary
  ********************
  
  -----------------------------------------------------------------------------
                                 Maximum  Time of Max   Maximum    Max/    Max/
                                  |Flow|   Occurrence   |Veloc|    Full    Full
  Link                 Type          CFS  days hr:min    ft/sec    Flow   Depth
  -----------------------------------------------------------------------------
  20                   CONDUIT      5.33     0  16:11      7.06    1.04    0.89
  21                   CONDUIT      5.36     0  16:10      5.24    0.70    0.81
  22                   CONDUIT      1.72     0  16:07      4.14    0.16    0.42
  23                   CONDUIT      1.21     0  16:08      2.66    0.09    0.35
  24                   CONDUIT      0.73     0  16:05      3.65    0.12    0.30
  25                   CONDUIT      0.66     0  16:06      3.89    0.11    0.26
  26                   CONDUIT      1.82     0  16:06      4.18    0.09    0.34
  27                   CONDUIT      0.72     0  16:05      2.94    0.08    0.22
  28                   CONDUIT      0.64     0  16:06      4.02    0.05    0.20
  29                   CONDUIT      0.74     0  16:05      4.70    0.07    0.26
  33                   CONDUIT      3.11     0  16:11      3.97    0.75    0.82
  34                   CONDUIT      2.90     0  16:09      4.83    0.35    0.46
  37                   CONDUIT      0.72     0  16:05      3.14    0.08    0.23
  38                   CONDUIT      2.93     0  16:11      5.69    0.33    0.52
  39                   CONDUIT      0.73     0  16:05      3.65    0.15    0.32
  40                   CONDUIT      0.66     0  16:06      2.55    0.10    0.31
  41                   CONDUIT      1.74     0  16:07      3.64    0.35    0.51
  42                   CONDUIT      1.70     0  16:08     11.78    0.13    0.20
  43                   CONDUIT      0.38     0  09:19      2.28    0.09    0.24
  44                   CONDUIT      0.38     0  09:20      2.75    0.11    0.26
  45                   CONDUIT      1.25     0  16:07      3.14    0.19    0.37
  46                   CONDUIT      0.72     0  16:05      3.09    0.17    0.32
  47                   CONDUIT      0.63     0  16:06      2.43    0.06    0.21
  48                   CONDUIT      0.74     0  16:05      4.09    0.08    0.27
  49                   CONDUIT      0.66     0  16:06      2.59    0.08    0.30
  50                   CONDUIT      0.74     0  16:05      4.60    0.03    0.20
  51                   CONDUIT      0.63     0  16:06      2.79    0.11    0.26
  52                   CONDUIT      1.78     0  16:06      4.22    0.22    0.49
  53                   CONDUIT      1.71     0  16:07      2.61    0.21    0.48
  54                   CONDUIT      2.42     0  16:09      2.68    0.88    0.73
  55                   CONDUIT      2.37     0  16:10      6.90    0.47    0.44
  56                   CONDUIT      0.73     0  16:05      3.49    0.06    0.22
  57                   CONDUIT      0.65     0  16:06      3.44    0.04    0.21
  58                   CONDUIT      0.73     0  16:05      3.46    0.09    0.24
  59                   CONDUIT      0.66     0  16:06      2.28    0.03    0.42
  60                   CONDUIT      3.66     0  16:09      4.87    0.22    0.66
  61                   CONDUIT      0.68     0  16:06      5.80    0.02    0.14
  62                   CONDUIT      0.62     0  16:06      3.26    0.06    0.17
  63                   CONDUIT      1.21     0  16:07      4.03    0.07    0.27
  65                   CONDUIT      1.11     0  16:08      4.30    0.17    0.30
  6                    WEIR         0.68     0  16:05                      0.38
  7                    WEIR         1.12     0  16:08                      0.56
  8                    WEIR         2.90     0  16:09                      1.00
  9                    WEIR         2.93     0  16:10                      1.00
  10                   WEIR         5.33     0  16:11                      0.86
  11                   WEIR         0.63     0  16:06                      0.39
  12                   WEIR         0.66     0  16:06                      0.39
  13                   WEIR         1.72     0  16:07                      0.71
  14                   WEIR         0.64     0  16:06                      0.37
  15                   WEIR         0.64     0  16:06                      0.40
  16                   WEIR         1.72     0  16:07                      0.74
  17                   WEIR         2.37     0  16:09                      0.92
  18                   WEIR         0.66     0  16:06                      0.37
  19                   WEIR         0.65     0  16:06                      0.37
  30                   WEIR         0.67     0  16:06                      0.40
  31                   WEIR         0.66     0  16:06                      0.39
  32                   WEIR         1.69     0  16:07                      0.70
  35                   WEIR         0.38     0  09:20                      0.31
  36                   WEIR         0.65     0  16:06                      0.40
  64                   WEIR         1.21     0  16:08                      0.57
  
  
  ***************************
  Flow Classification Summary
  ***************************
  
  -------------------------------------------------------------------------------------
                      Adjusted    ---------- Fraction of Time in Flow Class ---------- 
                       /Actual         Up    Down  Sub   Sup   Up    Down  Norm  Inlet 
  Conduit               Length    Dry  Dry   Dry   Crit  Crit  Crit  Crit  Ltd   Ctrl  
  -------------------------------------------------------------------------------------
  20                      1.00   0.00  0.00  0.00  0.00  1.00  0.00  0.00  0.59  0.00
  21                      1.00   0.00  0.00  0.00  0.05  0.95  0.00  0.00  0.99  0.00
  22                      1.00   0.00  0.00  0.00  0.95  0.05  0.00  0.00  1.00  0.00
  23                      1.00   0.00  0.00  0.00  0.45  0.55  0.00  0.00  1.00  0.00
  24                      1.00   0.00  0.00  0.00  0.05  0.95  0.00  0.00  0.96  0.00
  25                      1.00   0.00  0.00  0.00  0.13  0.87  0.00  0.00  1.00  0.00
  26                      1.00   0.00  0.00  0.00  0.02  0.98  0.00  0.00  0.99  0.00
  27                      1.00   0.00  0.00  0.00  0.20  0.80  0.00  0.00  0.22  0.00
  28                      1.00   0.00  0.00  0.00  0.11  0.89  0.00  0.00  1.00  0.00
  29                      1.00   0.00  0.00  0.00  0.00  1.00  0.00  0.00  0.83  0.00
  33                      1.00   0.00  0.00  0.00  0.27  0.73  0.00  0.00  0.83  0.00
  34                      1.00   0.00  0.00  0.00  0.17  0.83  0.00  0.00  1.00  0.00
  37                      1.00   0.00  0.00  0.00  0.70  0.30  0.00  0.00  0.95  0.00
  38                      1.00   0.00  0.00  0.00  0.43  0.57  0.00  0.00  1.00  0.00
  39                      1.00   0.00  0.00  0.00  0.05  0.95  0.00  0.00  0.87  0.00
  40                      1.00   0.00  0.00  0.00  1.00  0.00  0.00  0.00  1.00  0.00
  41                      1.00   0.00  0.00  0.00  0.10  0.90  0.00  0.00  0.37  0.00
  42                      1.00   0.00  0.00  0.00  0.58  0.41  0.00  0.00  0.86  0.00
  43                      1.00   0.00  0.00  0.00  0.78  0.22  0.00  0.00  0.96  0.00
  44                      1.00   0.00  0.01  0.00  0.22  0.77  0.00  0.00  0.49  0.00
  45                      1.00   0.00  0.00  0.00  0.46  0.54  0.00  0.00  0.94  0.00
  46                      1.00   0.00  0.00  0.00  0.44  0.56  0.00  0.00  0.61  0.00
  47                      1.00   0.00  0.00  0.00  1.00  0.00  0.00  0.00  1.00  0.00
  48                      1.00   0.00  0.00  0.00  0.00  1.00  0.00  0.00  0.97  0.00
  49                      1.00   0.00  0.00  0.00  1.00  0.00  0.00  0.00  1.00  0.00
  50                      1.00   0.00  0.00  0.00  0.07  0.93  0.00  0.00  0.99  0.00
  51                      1.00   0.00  0.00  0.00  0.96  0.03  0.00  0.00  1.00  0.00
  52                      1.00   0.00  0.00  0.00  0.01  0.99  0.00  0.00  0.99  0.00
  53                      1.00   0.00  0.00  0.00  1.00  0.00  0.00  0.00  1.00  0.00
  54                      1.00   0.00  0.00  0.00  1.00  0.00  0.00  0.00  0.12  0.00
  55                      1.00   0.00  0.00  0.00  0.02  0.98  0.00  0.00  0.07  0.00
  56                      1.00   0.00  0.00  0.00  0.05  0.95  0.00  0.00  0.54  0.00
  57                      1.00   0.00  0.00  0.00  0.20  0.80  0.00  0.00  1.00  0.00
  58                      1.00   0.00  0.00  0.00  0.04  0.96  0.00  0.00  0.30  0.00
  59                      1.00   0.00  0.00  0.00  1.00  0.00  0.00  0.00  1.00  0.00
  60                      1.00   0.00  0.00  0.00  0.00  1.00  0.00  0.00  1.00  0.00
  61                      1.00   0.00  0.00  0.00  0.07  0.93  0.00  0.00  0.98  0.00
  62                      1.00   0.00  0.00  0.00  0.36  0.64  0.00  0.00  0.96  0.00
  63                      1.00   0.00  0.00  0.00  0.12  0.88  0.00  0.00  0.99  0.00
  65                      1.00   0.00  0.00  0.00  0.46  0.54  0.00  0.00  0.98  0.00
  
  
  *************************
  Conduit Surcharge Summary
  *************************
  
  ----------------------------------------------------------------------------
                                                           Hours        Hours 
                         --------- Hours Full --------   Above Full   Capacity
  Conduit                Both Ends  Upstream  Dnstream   Normal Flow   Limited
  ----------------------------------------------------------------------------
  20                          0.01      0.01      0.01      0.04         0.01
  21                          0.01      0.01      0.05      0.01         0.01
  

  Analysis begun on:  Fri May  3 14:57:31 2024
  Analysis ended on:  Fri May  3 14:57:32 2024
  Total elapsed time: 00:00:01