
  EPA STORM WATER MANAGEMENT MODEL - VERSION 5.2 (Build 5.2.3)
  ------------------------------------------------------------

  
  ****************
  Analysis Options
  ****************
  Flow Units ............... CFS
  Process Models:
    Rainfall/Runoff ........ YES
    RDII ................... NO
    Snowmelt ............... NO
    Groundwater ............ NO
    Flow Routing ........... YES
    Ponding Allowed ........ NO
    Water Quality .......... NO
  Infiltration Method ...... HORTON
  Flow Routing Method ...... DYNWAVE
  Surcharge Method ......... EXTRAN
  Starting Date ............ 01/01/2020 00:00:00
  Ending Date .............. 01/01/2020 06:00:00
  Antecedent Dry Days ...... 0.0
  Report Time Step ......... 00:01:00
  Wet Time Step ............ 00:00:10
  Dry Time Step ............ 00:00:10
  Routing Time Step ........ 10.00 sec
  Variable Time Step ....... YES
  Maximum Trials ........... 8
  Number of Threads ........ 1
  Head Tolerance ........... 0.005000 ft
  
  
  **************************        Volume         Depth
  Runoff Quantity Continuity     acre-feet        inches
  **************************     ---------       -------
  Total Precipitation ......         0.000         0.000
  Evaporation Loss .........         0.000         0.000
  Infiltration Loss ........         0.000         0.000
  Surface Runoff ...........         0.000         0.000
  Final Storage ............         0.000         0.000
  Continuity Error (%) .....         0.000
  
  
  **************************        Volume        Volume
  Flow Routing Continuity        acre-feet      10^6 gal
  **************************     ---------     ---------
  Dry Weather Inflow .......         0.000         0.000
  Wet Weather Inflow .......         0.000         0.000
  Groundwater Inflow .......         0.000         0.000
  RDII Inflow ..............         0.000         0.000
  External Inflow ..........         0.118         0.039
  External Outflow .........         0.097         0.032
  Flooding Loss ............         0.000         0.000
  Evaporation Loss .........         0.000         0.000
  Exfiltration Loss ........         0.000         0.000
  Initial Stored Volume ....         0.000         0.000
  Final Stored Volume ......         0.021         0.007
  Continuity Error (%) .....         0.396
  
  
  *************************
  Highest Continuity Errors
  *************************
  Node 52 (1.41%)
  Node 20 (-1.05%)
  
  
  ***************************
  Time-Step Critical Elements
  ***************************
  Link 76 (86.54%)
  Link 77 (12.36%)
  Link 78 (1.06%)
  
  
  ********************************
  Highest Flow Instability Indexes
  ********************************
  All links are stable.
  
  
  *********************************
  Most Frequent Nonconverging Nodes
  *********************************
  Convergence obtained at all time steps.
  
  
  *************************
  Routing Time Step Summary
  *************************
  Minimum Time Step           :     0.50 sec
  Average Time Step           :     1.59 sec
  Maximum Time Step           :    10.00 sec
  % of Time in Steady State   :     0.00
  Average Iterations per Step :     2.00
  % of Steps Not Converging   :     0.00
  Time Step Frequencies       :
     10.000 -  5.493 sec      :     0.04 %
      5.493 -  3.017 sec      :    12.40 %
      3.017 -  1.657 sec      :    32.85 %
      1.657 -  0.910 sec      :    13.81 %
      0.910 -  0.500 sec      :    40.90 %
  
  
  ***************************
  Subcatchment Runoff Summary
  ***************************
  
  ------------------------------------------------------------------------------------------------------------------------------
                            Total      Total      Total      Total     Imperv       Perv      Total       Total     Peak  Runoff
                           Precip      Runon       Evap      Infil     Runoff     Runoff     Runoff      Runoff   Runoff   Coeff
  Subcatchment                 in         in         in         in         in         in         in    10^6 gal      CFS
  ------------------------------------------------------------------------------------------------------------------------------
  65                         0.00       0.00       0.00       0.00       0.00       0.00       0.00        0.00     0.00   0.000
  66                         0.00       0.00       0.00       0.00       0.00       0.00       0.00        0.00     0.00   0.000
  67                         0.00       0.00       0.00       0.00       0.00       0.00       0.00        0.00     0.00   0.000
  68                         0.00       0.00       0.00       0.00       0.00       0.00       0.00        0.00     0.00   0.000
  69                         0.00       0.00       0.00       0.00       0.00       0.00       0.00        0.00     0.00   0.000
  70                         0.00       0.00       0.00       0.00       0.00       0.00       0.00        0.00     0.00   0.000
  71                         0.00       0.00       0.00       0.00       0.00       0.00       0.00        0.00     0.00   0.000
  72                         0.00       0.00       0.00       0.00       0.00       0.00       0.00        0.00     0.00   0.000
  73                         0.00       0.00       0.00       0.00       0.00       0.00       0.00        0.00     0.00   0.000
  74                         0.00       0.00       0.00       0.00       0.00       0.00       0.00        0.00     0.00   0.000
  75                         0.00       0.00       0.00       0.00       0.00       0.00       0.00        0.00     0.00   0.000
  76                         0.00       0.00       0.00       0.00       0.00       0.00       0.00        0.00     0.00   0.000
  77                         0.00       0.00       0.00       0.00       0.00       0.00       0.00        0.00     0.00   0.000
  78                         0.00       0.00       0.00       0.00       0.00       0.00       0.00        0.00     0.00   0.000
  79                         0.00       0.00       0.00       0.00       0.00       0.00       0.00        0.00     0.00   0.000
  80                         0.00       0.00       0.00       0.00       0.00       0.00       0.00        0.00     0.00   0.000
  81                         0.00       0.00       0.00       0.00       0.00       0.00       0.00        0.00     0.00   0.000
  82                         0.00       0.00       0.00       0.00       0.00       0.00       0.00        0.00     0.00   0.000
  83                         0.00       0.00       0.00       0.00       0.00       0.00       0.00        0.00     0.00   0.000
  
  
  ******************
  Node Depth Summary
  ******************
  
  ---------------------------------------------------------------------------------
                                 Average  Maximum  Maximum  Time of Max    Reported
                                   Depth    Depth      HGL   Occurrence   Max Depth
  Node                 Type         Feet     Feet     Feet  days hr:min        Feet
  ---------------------------------------------------------------------------------
  2                    JUNCTION     0.09     0.55    10.55     0  00:20        0.55
  3                    JUNCTION     0.00     0.00    20.00     0  00:00        0.00
  4                    JUNCTION     0.00     0.00    30.00     0  00:00        0.00
  5                    JUNCTION     0.00     0.00    30.00     0  00:00        0.00
  6                    JUNCTION     0.00     0.00    20.00     0  00:00        0.00
  7                    JUNCTION     0.00     0.00    40.00     0  00:00        0.00
  8                    JUNCTION     0.00     0.00    50.00     0  00:00        0.00
  9                    JUNCTION     0.00     0.00    60.00     0  00:00        0.00
  10                   JUNCTION     0.00     0.00    60.00     0  00:00        0.00
  11                   JUNCTION     0.00     0.00    50.00     0  00:00        0.00
  13                   JUNCTION     0.00     0.00    50.00     0  00:00        0.00
  14                   JUNCTION     0.00     0.00    50.00     0  00:00        0.00
  15                   JUNCTION     0.11     0.71    20.71     0  00:19        0.71
  16                   JUNCTION     0.00     0.00    30.00     0  00:00        0.00
  17                   JUNCTION     0.12     0.74    40.74     0  00:15        0.74
  18                   JUNCTION     0.12     0.74    50.74     0  00:15        0.74
  19                   JUNCTION     0.00     0.00    50.00     0  00:00        0.00
  21                   JUNCTION     0.10     0.61     5.71     0  00:20        0.61
  22                   JUNCTION     0.09     0.55     5.50     0  00:20        0.55
  23                   JUNCTION     0.00     0.00    14.95     0  00:00        0.00
  24                   JUNCTION     0.00     0.00    15.10     0  00:00        0.00
  25                   JUNCTION     0.00     0.00    24.95     0  00:00        0.00
  26                   JUNCTION     0.00     0.00    25.10     0  00:00        0.00
  27                   JUNCTION     0.00     0.00    24.95     0  00:00        0.00
  28                   JUNCTION     0.00     0.00    25.10     0  00:00        0.00
  29                   JUNCTION     0.00     0.00    14.95     0  00:00        0.00
  30                   JUNCTION     0.00     0.00    15.10     0  00:00        0.00
  31                   JUNCTION     0.00     0.00    24.95     0  00:00        0.00
  33                   JUNCTION     0.00     0.00    44.95     0  00:00        0.00
  34                   JUNCTION     0.00     0.00    45.10     0  00:00        0.00
  35                   JUNCTION     0.00     0.00    44.95     0  00:00        0.00
  36                   JUNCTION     0.00     0.00    45.10     0  00:00        0.00
  37                   JUNCTION     0.00     0.00    34.95     0  00:00        0.00
  38                   JUNCTION     0.00     0.00    35.10     0  00:00        0.00
  39                   JUNCTION     0.00     0.00    44.95     0  00:00        0.00
  40                   JUNCTION     0.00     0.00    45.10     0  00:00        0.00
  41                   JUNCTION     0.00     0.00    54.95     0  00:00        0.00
  42                   JUNCTION     0.00     0.00    55.10     0  00:00        0.00
  43                   JUNCTION     0.00     0.00    54.95     0  00:00        0.00
  44                   JUNCTION     0.00     0.00    55.10     0  00:00        0.00
  45                   JUNCTION     0.00     0.00    44.95     0  00:00        0.00
  46                   JUNCTION     0.00     0.00    45.10     0  00:00        0.00
  47                   JUNCTION     0.12     0.74    15.69     0  00:19        0.74
  48                   JUNCTION     0.11     0.69    15.79     0  00:19        0.69
  49                   JUNCTION     0.00     0.00    24.95     0  00:00        0.00
  50                   JUNCTION     0.00     0.00    25.10     0  00:00        0.00
  51                   JUNCTION     0.11     0.69    35.79     0  00:16        0.68
  52                   JUNCTION     0.12     0.72    35.67     0  00:16        0.72
  53                   JUNCTION     0.10     0.67    25.77     0  00:18        0.67
  54                   JUNCTION     0.11     0.70    25.65     0  00:18        0.70
  55                   JUNCTION     0.12     0.73    45.68     0  00:15        0.72
  56                   JUNCTION     0.11     0.69    45.79     0  00:15        0.69
  57                   JUNCTION     0.00     0.00    45.10     0  00:00        0.00
  58                   JUNCTION     0.00     0.00    44.95     0  00:00        0.00
  59                   JUNCTION     0.00     0.00    30.00     0  00:00        0.00
  60                   JUNCTION     0.00     0.00    25.10     0  00:00        0.00
  61                   JUNCTION     0.00     0.00    34.95     0  00:00        0.00
  62                   JUNCTION     0.00     0.00    35.10     0  00:00        0.00
  63                   JUNCTION     0.00     0.00    40.00     0  00:00        0.00
  1                    OUTFALL      0.09     0.55     0.55     0  00:20        0.55
  20                   STORAGE      1.05     1.72    30.72     0  00:18        1.71
  
  
  *******************
  Node Inflow Summary
  *******************
  
  -------------------------------------------------------------------------------------------------
                                  Maximum  Maximum                  Lateral       Total        Flow
                                  Lateral    Total  Time of Max      Inflow      Inflow     Balance
                                   Inflow   Inflow   Occurrence      Volume      Volume       Error
  Node                 Type           CFS      CFS  days hr:min    10^6 gal    10^6 gal     Percent
  -------------------------------------------------------------------------------------------------
  2                    JUNCTION      0.00     5.49     0  00:19           0      0.0317       0.018
  3                    JUNCTION      0.00     0.00     0  00:00           0           0       0.000 gal
  4                    JUNCTION      0.00     0.00     0  00:00           0           0       0.000 gal
  5                    JUNCTION      0.00     0.00     0  00:00           0           0       0.000 gal
  6                    JUNCTION      0.00     0.00     0  00:00           0           0       0.000 gal
  7                    JUNCTION      0.00     0.00     0  00:00           0           0       0.000 gal
  8                    JUNCTION      0.00     0.00     0  00:00           0           0       0.000 gal
  9                    JUNCTION      0.00     0.00     0  00:00           0           0       0.000 gal
  10                   JUNCTION      0.00     0.00     0  00:00           0           0       0.000 gal
  11                   JUNCTION      0.00     0.00     0  00:00           0           0       0.000 gal
  13                   JUNCTION      0.00     0.00     0  00:00           0           0       0.000 gal
  14                   JUNCTION      0.00     0.00     0  00:00           0           0       0.000 gal
  15                   JUNCTION      0.00     5.50     0  00:18           0      0.0317       0.035
  16                   JUNCTION      0.00     0.00     0  00:00           0           0       0.000 gal
  17                   JUNCTION      0.00     5.71     0  00:15           0      0.0386       0.025
  18                   JUNCTION      5.73     5.73     0  00:15      0.0385      0.0385      -0.019
  19                   JUNCTION      0.00     0.00     0  00:00           0           0       0.000 gal
  21                   JUNCTION      0.00     5.48     0  00:20           0      0.0317       0.073
  22                   JUNCTION      0.00     5.47     0  00:20           0      0.0316      -0.008
  23                   JUNCTION      0.00     0.00     0  00:00           0           0       0.000 gal
  24                   JUNCTION      0.00     0.00     0  00:00           0           0       0.000 gal
  25                   JUNCTION      0.00     0.00     0  00:00           0           0       0.000 gal
  26                   JUNCTION      0.00     0.00     0  00:00           0           0       0.000 gal
  27                   JUNCTION      0.00     0.00     0  00:00           0           0       0.000 gal
  28                   JUNCTION      0.00     0.00     0  00:00           0           0       0.000 gal
  29                   JUNCTION      0.00     0.00     0  00:00           0           0       0.000 gal
  30                   JUNCTION      0.00     0.00     0  00:00           0           0       0.000 gal
  31                   JUNCTION      0.00     0.00     0  00:00           0           0       0.000 gal
  33                   JUNCTION      0.00     0.00     0  00:00           0           0       0.000 gal
  34                   JUNCTION      0.00     0.00     0  00:00           0           0       0.000 gal
  35                   JUNCTION      0.00     0.00     0  00:00           0           0       0.000 gal
  36                   JUNCTION      0.00     0.00     0  00:00           0           0       0.000 gal
  37                   JUNCTION      0.00     0.00     0  00:00           0           0       0.000 gal
  38                   JUNCTION      0.00     0.00     0  00:00           0           0       0.000 gal
  39                   JUNCTION      0.00     0.00     0  00:00           0           0       0.000 gal
  40                   JUNCTION      0.00     0.00     0  00:00           0           0       0.000 gal
  41                   JUNCTION      0.00     0.00     0  00:00           0           0       0.000 gal
  42                   JUNCTION      0.00     0.00     0  00:00           0           0       0.000 gal
  43                   JUNCTION      0.00     0.00     0  00:00           0           0       0.000 gal
  44                   JUNCTION      0.00     0.00     0  00:00           0           0       0.000 gal
  45                   JUNCTION      0.00     0.00     0  00:00           0           0       0.000 gal
  46                   JUNCTION      0.00     0.00     0  00:00           0           0       0.000 gal
  47                   JUNCTION      0.00     5.49     0  00:19           0      0.0316      -0.086
  48                   JUNCTION      0.00     5.49     0  00:19           0      0.0316       0.044
  49                   JUNCTION      0.00     0.00     0  00:00           0           0       0.000 gal
  50                   JUNCTION      0.00     0.00     0  00:00           0           0       0.000 gal
  51                   JUNCTION      0.00     5.71     0  00:16           0      0.0386       0.017
  52                   JUNCTION      0.00     5.70     0  00:16           0      0.0385       1.435
  53                   JUNCTION      0.00     5.50     0  00:18           0      0.0316       0.046
  54                   JUNCTION      0.00     5.50     0  00:18           0      0.0316      -0.076
  55                   JUNCTION      0.00     5.72     0  00:15           0      0.0385      -0.043
  56                   JUNCTION      0.00     5.72     0  00:15           0      0.0386       0.019
  57                   JUNCTION      0.00     0.00     0  00:00           0           0       0.000 gal
  58                   JUNCTION      0.00     0.00     0  00:00           0           0       0.000 gal
  59                   JUNCTION      0.00     0.00     0  00:00           0           0       0.000 gal
  60                   JUNCTION      0.00     0.00     0  00:00           0           0       0.000 gal
  61                   JUNCTION      0.00     0.00     0  00:00           0           0       0.000 gal
  62                   JUNCTION      0.00     0.00     0  00:00           0           0       0.000 gal
  63                   JUNCTION      0.00     0.00     0  00:00           0           0       0.000 gal
  1                    OUTFALL       0.00     5.47     0  00:20           0      0.0316       0.000
  20                   STORAGE       0.00     5.70     0  00:16           0       0.038      -1.044
  
  
  **********************
  Node Surcharge Summary
  **********************
  
  No nodes were surcharged.
  
  
  *********************
  Node Flooding Summary
  *********************
  
  No nodes were flooded.
  
  
  **********************
  Storage Volume Summary
  **********************
  
  ------------------------------------------------------------------------------------------------
                         Average    Avg   Evap  Exfil     Maximum    Max    Time of Max    Maximum
                          Volume   Pcnt   Pcnt   Pcnt      Volume   Pcnt     Occurrence    Outflow
  Storage Unit          1000 ft³   Full   Loss   Loss    1000 ft³   Full    days hr:min        CFS
  ------------------------------------------------------------------------------------------------
  20                       0.942   52.3    0.0    0.0       1.544   85.8       0  00:18       5.50
  
  
  ***********************
  Outfall Loading Summary
  ***********************
  
  -----------------------------------------------------------
                         Flow       Avg       Max       Total
                         Freq      Flow      Flow      Volume
  Outfall Node           Pcnt       CFS       CFS    10^6 gal
  -----------------------------------------------------------
  1                     64.81      0.94      5.47       0.032
  -----------------------------------------------------------
  System                64.81      0.94      5.47       0.032
  
  
  ********************
  Link Flow Summary
  ********************
  
  -----------------------------------------------------------------------------
                                 Maximum  Time of Max   Maximum    Max/    Max/
                                  |Flow|   Occurrence   |Veloc|    Full    Full
  Link                 Type          CFS  days hr:min    ft/sec    Flow   Depth
  -----------------------------------------------------------------------------
  20                   CONDUIT      5.47     0  00:20      9.37    0.28    0.37
  21                   CONDUIT      5.48     0  00:20      8.73    0.29    0.39
  22                   CONDUIT      0.00     0  00:00      0.00    0.00    0.27
  23                   CONDUIT      5.49     0  00:19     10.30    0.84    0.64
  24                   CONDUIT      0.00     0  00:00      0.00    0.00    0.00
  25                   CONDUIT      0.00     0  00:00      0.00    0.00    0.00
  26                   CONDUIT      0.00     0  00:00      0.00    0.00    0.00
  27                   CONDUIT      0.00     0  00:00      0.00    0.00    0.00
  28                   CONDUIT      0.00     0  00:00      0.00    0.00    0.00
  29                   CONDUIT      0.00     0  00:00      0.00    0.00    0.00
  33                   CONDUIT      0.00     0  00:00      0.00    0.00    0.00
  34                   CONDUIT      0.00     0  00:00      0.00    0.00    0.00
  37                   CONDUIT      0.00     0  00:00      0.00    0.00    0.00
  38                   CONDUIT      0.00     0  00:00      0.00    0.00    0.27
  39                   CONDUIT      5.72     0  00:15      9.56    0.88    0.71
  40                   CONDUIT      5.71     0  00:15      9.30    0.88    0.73
  41                   CONDUIT      5.71     0  00:16      9.56    0.88    0.71
  42                   CONDUIT      5.70     0  00:16      9.35    0.87    0.72
  43                   CONDUIT      5.50     0  00:18      9.51    0.85    0.69
  44                   CONDUIT      5.50     0  00:18      9.28    0.84    0.71
  45                   CONDUIT      5.49     0  00:19      9.37    0.85    0.70
  46                   CONDUIT      0.00     0  00:00      0.00    0.00    0.00
  47                   CONDUIT      0.00     0  00:00      0.00    0.00    0.36
  48                   CONDUIT      0.00     0  00:00      0.00    0.00    0.00
  49                   CONDUIT      0.00     0  00:00      0.00    0.00    0.37
  50                   CONDUIT      0.00     0  00:00      0.00    0.00    0.00
  51                   CONDUIT      0.00     0  00:00      0.00    0.00    0.00
  52                   CONDUIT      0.00     0  00:00      0.00    0.00    0.00
  53                   CONDUIT      0.00     0  00:00      0.00    0.00    0.00
  54                   CONDUIT      0.00     0  00:00      0.00    0.00    0.00
  55                   CONDUIT      0.00     0  00:00      0.00    0.00    0.00
  56                   CONDUIT      0.00     0  00:00      0.00    0.00    0.00
  57                   CONDUIT      0.00     0  00:00      0.00    0.00    0.00
  58                   CONDUIT      0.00     0  00:00      0.00    0.00    0.00
  59                   CONDUIT      0.00     0  00:00      0.00    0.00    0.00
  60                   CONDUIT      0.00     0  00:00      0.00    0.00    0.00
  61                   CONDUIT      0.00     0  00:00      0.00    0.00    0.00
  62                   CONDUIT      0.00     0  00:00      0.00    0.00    0.00
  63                   CONDUIT      0.00     0  00:00      0.00    0.00    0.00
  65                   CONDUIT      0.00     0  00:00      0.00    0.00    0.00
  66                   CONDUIT      0.00     0  00:00      0.00    0.00    0.00
  67                   CONDUIT      0.00     0  00:00      0.00    0.00    0.00
  68                   CONDUIT      0.00     0  00:00      0.00    0.00    0.00
  69                   CONDUIT      0.00     0  00:00      0.00    0.00    0.00
  70                   CONDUIT      0.00     0  00:00      0.00    0.00    0.00
  71                   CONDUIT      0.00     0  00:00      0.00    0.00    0.00
  72                   CONDUIT      0.00     0  00:00      0.00    0.00    0.00
  73                   CONDUIT      0.00     0  00:00      0.00    0.00    0.00
  74                   CONDUIT      0.00     0  00:00      0.00    0.00    0.00
  75                   CONDUIT      0.00     0  00:00      0.00    0.00    0.00
  76                   CONDUIT      5.47     0  00:20     11.66    0.68    0.58
  77                   CONDUIT      5.72     0  00:15      9.65    0.71    0.71
  78                   CONDUIT      5.70     0  00:16      9.66    0.71    0.71
  79                   CONDUIT      5.50     0  00:18      9.59    0.69    0.69
  80                   CONDUIT      5.49     0  00:19      9.17    0.68    0.71
  81                   CONDUIT      0.00     0  00:00      0.00    0.00    0.00
  82                   CONDUIT      0.00     0  00:00      0.00    0.00    0.00
  84                   CONDUIT      0.00     0  00:00      0.00    0.00    0.00
  85                   CONDUIT      0.00     0  00:00      0.00    0.00    0.00
  83                   CONDUIT      0.00     0  00:00      0.00    0.00    0.00
  
  
  ***************************
  Flow Classification Summary
  ***************************
  
  -------------------------------------------------------------------------------------
                      Adjusted    ---------- Fraction of Time in Flow Class ---------- 
                       /Actual         Up    Down  Sub   Sup   Up    Down  Norm  Inlet 
  Conduit               Length    Dry  Dry   Dry   Crit  Crit  Crit  Crit  Ltd   Ctrl  
  -------------------------------------------------------------------------------------
  20                      1.00   0.04  0.00  0.00  0.00  0.96  0.00  0.00  0.13  0.00
  21                      1.00   0.04  0.00  0.00  0.19  0.77  0.00  0.00  0.95  0.00
  22                      1.00   0.04  0.96  0.00  0.00  0.00  0.00  0.00  0.00  0.00
  23                      1.00   0.04  0.00  0.00  0.00  0.96  0.00  0.00  0.05  0.00
  24                      1.00   1.00  0.00  0.00  0.00  0.00  0.00  0.00  0.00  0.00
  25                      1.00   1.00  0.00  0.00  0.00  0.00  0.00  0.00  0.00  0.00
  26                      1.00   1.00  0.00  0.00  0.00  0.00  0.00  0.00  0.00  0.00
  27                      1.00   1.00  0.00  0.00  0.00  0.00  0.00  0.00  0.00  0.00
  28                      1.00   1.00  0.00  0.00  0.00  0.00  0.00  0.00  0.00  0.00
  29                      1.00   1.00  0.00  0.00  0.00  0.00  0.00  0.00  0.00  0.00
  33                      1.00   1.00  0.00  0.00  0.00  0.00  0.00  0.00  0.00  0.00
  34                      1.00   1.00  0.00  0.00  0.00  0.00  0.00  0.00  0.00  0.00
  37                      1.00   1.00  0.00  0.00  0.00  0.00  0.00  0.00  0.00  0.00
  38                      1.00   0.04  0.96  0.00  0.00  0.00  0.00  0.00  0.00  0.00
  39                      1.00   0.00  0.00  0.00  0.90  0.10  0.00  0.00  0.95  0.00
  40                      1.00   0.00  0.00  0.00  0.91  0.09  0.00  0.00  0.96  0.00
  41                      1.00   0.00  0.00  0.00  0.85  0.15  0.00  0.00  0.95  0.00
  42                      1.00   0.01  0.77  0.00  0.14  0.04  0.00  0.04  0.95  0.00
  43                      1.00   0.03  0.00  0.00  0.00  0.97  0.00  0.00  0.03  0.00
  44                      1.00   0.03  0.00  0.00  0.00  0.97  0.00  0.00  0.95  0.00
  45                      1.00   0.03  0.00  0.00  0.00  0.97  0.00  0.00  0.03  0.00
  46                      1.00   1.00  0.00  0.00  0.00  0.00  0.00  0.00  0.00  0.00
  47                      1.00   0.03  0.97  0.00  0.00  0.00  0.00  0.00  0.00  0.00
  48                      1.00   1.00  0.00  0.00  0.00  0.00  0.00  0.00  0.00  0.00
  49                      1.00   0.00  1.00  0.00  0.00  0.00  0.00  0.00  0.00  0.00
  50                      1.00   1.00  0.00  0.00  0.00  0.00  0.00  0.00  0.00  0.00
  51                      1.00   1.00  0.00  0.00  0.00  0.00  0.00  0.00  0.00  0.00
  52                      1.00   1.00  0.00  0.00  0.00  0.00  0.00  0.00  0.00  0.00
  53                      1.00   1.00  0.00  0.00  0.00  0.00  0.00  0.00  0.00  0.00
  54                      1.00   1.00  0.00  0.00  0.00  0.00  0.00  0.00  0.00  0.00
  55                      1.00   1.00  0.00  0.00  0.00  0.00  0.00  0.00  0.00  0.00
  56                      1.00   1.00  0.00  0.00  0.00  0.00  0.00  0.00  0.00  0.00
  57                      1.00   1.00  0.00  0.00  0.00  0.00  0.00  0.00  0.00  0.00
  58                      1.00   1.00  0.00  0.00  0.00  0.00  0.00  0.00  0.00  0.00
  59                      1.00   1.00  0.00  0.00  0.00  0.00  0.00  0.00  0.00  0.00
  60                      1.00   1.00  0.00  0.00  0.00  0.00  0.00  0.00  0.00  0.00
  61                      1.00   1.00  0.00  0.00  0.00  0.00  0.00  0.00  0.00  0.00
  62                      1.00   1.00  0.00  0.00  0.00  0.00  0.00  0.00  0.00  0.00
  63                      1.00   1.00  0.00  0.00  0.00  0.00  0.00  0.00  0.00  0.00
  65                      1.00   1.00  0.00  0.00  0.00  0.00  0.00  0.00  0.00  0.00
  66                      1.00   1.00  0.00  0.00  0.00  0.00  0.00  0.00  0.00  0.00
  67                      1.00   1.00  0.00  0.00  0.00  0.00  0.00  0.00  0.00  0.00
  68                      1.00   1.00  0.00  0.00  0.00  0.00  0.00  0.00  0.00  0.00
  69                      1.00   1.00  0.00  0.00  0.00  0.00  0.00  0.00  0.00  0.00
  70                      1.00   1.00  0.00  0.00  0.00  0.00  0.00  0.00  0.00  0.00
  71                      1.00   1.00  0.00  0.00  0.00  0.00  0.00  0.00  0.00  0.00
  72                      1.00   1.00  0.00  0.00  0.00  0.00  0.00  0.00  0.00  0.00
  73                      1.00   1.00  0.00  0.00  0.00  0.00  0.00  0.00  0.00  0.00
  74                      1.00   1.00  0.00  0.00  0.00  0.00  0.00  0.00  0.00  0.00
  75                      1.00   1.00  0.00  0.00  0.00  0.00  0.00  0.00  0.00  0.00
  76                      1.00   0.04  0.00  0.00  0.00  0.96  0.00  0.00  0.67  0.00
  77                      1.00   0.00  0.00  0.00  0.90  0.10  0.00  0.00  0.92  0.00
  78                      1.00   0.01  0.00  0.00  0.85  0.14  0.00  0.00  0.92  0.00
  79                      1.00   0.03  0.00  0.00  0.00  0.97  0.00  0.00  0.90  0.00
  80                      1.00   0.03  0.00  0.00  0.00  0.96  0.00  0.00  0.89  0.00
  81                      1.00   1.00  0.00  0.00  0.00  0.00  0.00  0.00  0.00  0.00
  82                      1.00   1.00  0.00  0.00  0.00  0.00  0.00  0.00  0.00  0.00
  84                      1.00   1.00  0.00  0.00  0.00  0.00  0.00  0.00  0.00  0.00
  85                      1.00   1.00  0.00  0.00  0.00  0.00  0.00  0.00  0.00  0.00
  83                      1.00   1.00  0.00  0.00  0.00  0.00  0.00  0.00  0.00  0.00
  
  
  *************************
  Conduit Surcharge Summary
  *************************
  
  No conduits were surcharged.
  

  Analysis begun on:  Tue Feb 18 14:43:52 2025
  Analysis ended on:  Tue Feb 18 14:43:53 2025
  Total elapsed time: 00:00:01