
  OWA STORM WATER MANAGEMENT MODEL - VERSION v5.2.3 (OWA 2023-03-28)
  ------------------------------------------------------------

  WARNING 04: minimum elevation drop used for Conduit 1
  WARNING 04: minimum elevation drop used for Conduit 2
  WARNING 04: minimum elevation drop used for Conduit 3
  WARNING 04: minimum elevation drop used for Conduit 4
  
  ****************
  Analysis Options
  ****************
  Flow Units ............... CFS
  Process Models:
    Rainfall/Runoff ........ NO
    RDII ................... NO
    Snowmelt ............... NO
    Groundwater ............ NO
    Flow Routing ........... YES
    Ponding Allowed ........ NO
    Water Quality .......... NO
  Flow Routing Method ...... DYNWAVE
  Surcharge Method ......... EXTRAN
  Starting Date ............ 01/01/2020 00:00:00
  Ending Date .............. 01/02/2020 06:00:00
  Antecedent Dry Days ...... 0.0
  Report Time Step ......... 00:00:10
  Routing Time Step ........ 0.50 sec
  Variable Time Step ....... NO
  Maximum Trials ........... 8
  Number of Threads ........ 1
  Head Tolerance ........... 0.005000 ft
  
  
  **************************        Volume        Volume
  Flow Routing Continuity        acre-feet      10^6 gal
  **************************     ---------     ---------
  Dry Weather Inflow .......         0.000         0.000
  Wet Weather Inflow .......         0.000         0.000
  Groundwater Inflow .......         0.000         0.000
  RDII Inflow ..............         0.000         0.000
  External Inflow ..........         1.527         0.498
  External Outflow .........         1.489         0.485
  Flooding Loss ............         0.038         0.012
  Evaporation Loss .........         0.000         0.000
  Exfiltration Loss ........         0.000         0.000
  Initial Stored Volume ....         0.000         0.000
  Final Stored Volume ......         0.000         0.000
  Continuity Error (%) .....        -0.013
  
  
  ********************************
  Highest Flow Instability Indexes
  ********************************
  All links are stable.
  
  
  *********************************
  Most Frequent Nonconverging Nodes
  *********************************
  Node 10 (0.02%)
  Node 57 (0.02%)
  Node 58 (0.02%)
  Node 59 (0.01%)
  Node 42 (0.01%)
  
  
  *************************
  Routing Time Step Summary
  *************************
  Minimum Time Step           :     0.50 sec
  Average Time Step           :     0.50 sec
  Maximum Time Step           :     0.50 sec
  % of Time in Steady State   :     0.00
  Average Iterations per Step :     2.00
  % of Steps Not Converging   :     0.02
  
  
  ******************
  Node Depth Summary
  ******************
  
  ---------------------------------------------------------------------------------
                                 Average  Maximum  Maximum  Time of Max    Reported
                                   Depth    Depth      HGL   Occurrence   Max Depth
  Node                 Type         Feet     Feet     Feet  days hr:min        Feet
  ---------------------------------------------------------------------------------
  38                   JUNCTION     0.10     0.43    10.43     0  14:34        0.43
  39                   JUNCTION     0.18     1.84     9.84     0  04:07        1.84
  40                   JUNCTION     0.17     1.83     9.83     0  04:07        1.83
  41                   JUNCTION     0.74     2.98     8.98     0  04:07        2.98
  42                   JUNCTION     0.23     1.94     7.94     0  04:07        1.94
  43                   JUNCTION     0.32     2.07     6.07     0  15:48        2.06
  44                   JUNCTION     0.29     2.00     6.00     0  03:58        2.00
  45                   JUNCTION     0.35     2.06     4.06     0  04:00        2.06
  46                   JUNCTION     0.32     2.00     4.00     0  04:00        2.00
  47                   JUNCTION     0.10     0.43    10.10     0  14:34        0.43
  48                   JUNCTION     0.10     0.63     9.96     0  04:07        0.63
  49                   JUNCTION     0.10     0.94     9.94     0  04:07        0.94
  50                   JUNCTION     0.11     1.24     9.91     0  04:07        1.24
  51                   JUNCTION     0.12     1.54     9.87     0  04:07        1.54
  52                   JUNCTION     0.18     2.02     9.69     0  04:07        2.02
  53                   JUNCTION     0.19     2.21     9.55     0  04:07        2.21
  54                   JUNCTION     0.21     2.41     9.41     0  04:07        2.41
  55                   JUNCTION     0.25     2.60     9.26     0  04:07        2.60
  56                   JUNCTION     0.46     2.79     9.12     0  04:07        2.79
  57                   JUNCTION     0.24     1.96     7.63     0  04:07        1.96
  58                   JUNCTION     0.24     1.98     7.31     0  04:07        1.98
  59                   JUNCTION     0.25     2.00     7.00     0  04:07        2.00
  60                   JUNCTION     0.26     2.02     6.69     0  04:07        2.02
  61                   JUNCTION     0.26     2.04     6.37     0  04:07        2.04
  62                   JUNCTION     0.30     2.03     5.70     0  03:58        2.01
  63                   JUNCTION     0.30     2.02     5.35     0  04:00        2.02
  64                   JUNCTION     0.30     2.03     5.03     0  04:00        2.03
  65                   JUNCTION     0.30     2.04     4.71     0  04:00        2.04
  66                   JUNCTION     0.30     2.05     4.38     0  04:00        2.05
  67                   JUNCTION     0.31     1.79     3.45     0  04:00        1.79
  68                   JUNCTION     0.30     1.58     2.91     0  04:00        1.58
  69                   JUNCTION     0.29     1.36     2.36     0  04:00        1.36
  70                   JUNCTION     0.27     1.15     1.82     0  04:00        1.15
  71                   JUNCTION     0.26     0.98     1.31     0  04:00        0.98
  10                   OUTFALL      0.22     0.72     0.72     0  04:00        0.72
  
  
  *******************
  Node Inflow Summary
  *******************
  
  -------------------------------------------------------------------------------------------------
                                  Maximum  Maximum                  Lateral       Total        Flow
                                  Lateral    Total  Time of Max      Inflow      Inflow     Balance
                                   Inflow   Inflow   Occurrence      Volume      Volume       Error
  Node                 Type           CFS      CFS  days hr:min    10^6 gal    10^6 gal     Percent
  -------------------------------------------------------------------------------------------------
  38                   JUNCTION      0.85     0.85     0  14:34       0.101       0.101      -0.000
  39                   JUNCTION      0.00     0.84     0  14:38           0       0.101      -0.001
  40                   JUNCTION      0.73     1.43     0  04:08       0.097       0.198       0.000
  41                   JUNCTION      0.00     1.43     0  04:08           0       0.198       0.011
  42                   JUNCTION      0.79     2.12     0  04:07       0.101       0.299      -0.001
  43                   JUNCTION      0.00     2.12     0  04:07           0       0.299      -0.002
  44                   JUNCTION      0.85     2.78     0  14:35      0.0985       0.398      -0.001
  45                   JUNCTION      0.00     2.30     0  04:14           0       0.386      -0.001
  46                   JUNCTION      0.70     2.85     0  18:20      0.0998       0.486      -0.000
  47                   JUNCTION      0.00     0.85     0  14:34           0       0.101       0.000
  48                   JUNCTION      0.00     0.85     0  14:34           0       0.101      -0.000
  49                   JUNCTION      0.00     0.85     0  14:34           0       0.101      -0.000
  50                   JUNCTION      0.00     0.85     0  14:34           0       0.101      -0.001
  51                   JUNCTION      0.00     0.84     0  14:31           0       0.101       0.003
  52                   JUNCTION      0.00     1.43     0  04:08           0       0.198       0.000
  53                   JUNCTION      0.00     1.43     0  04:08           0       0.198       0.000
  54                   JUNCTION      0.00     1.43     0  04:08           0       0.198      -0.002
  55                   JUNCTION      0.00     1.43     0  04:08           0       0.198      -0.001
  56                   JUNCTION      0.00     1.43     0  04:08           0       0.198       0.007
  57                   JUNCTION      0.00     2.12     0  04:07           0       0.299      -0.003
  58                   JUNCTION      0.00     2.12     0  04:07           0       0.299      -0.001
  59                   JUNCTION      0.00     2.12     0  04:07           0       0.299      -0.002
  60                   JUNCTION      0.00     2.12     0  04:07           0       0.299      -0.002
  61                   JUNCTION      0.00     2.12     0  04:07           0       0.299      -0.001
  62                   JUNCTION      0.00     2.30     0  04:14           0       0.386      -0.000
  63                   JUNCTION      0.00     2.30     0  04:14           0       0.386      -0.000
  64                   JUNCTION      0.00     2.30     0  04:14           0       0.386      -0.000
  65                   JUNCTION      0.00     2.30     0  04:14           0       0.386      -0.001
  66                   JUNCTION      0.00     2.30     0  04:14           0       0.386      -0.001
  67                   JUNCTION      0.00     2.79     0  04:00           0       0.485      -0.000
  68                   JUNCTION      0.00     2.79     0  04:00           0       0.485      -0.000
  69                   JUNCTION      0.00     2.79     0  04:00           0       0.485      -0.000
  70                   JUNCTION      0.00     2.79     0  04:00           0       0.485      -0.001
  71                   JUNCTION      0.00     2.79     0  04:00           0       0.485      -0.000
  10                   OUTFALL       0.00     2.79     0  04:00           0       0.485       0.000
  
  
  **********************
  Node Surcharge Summary
  **********************
  
  Surcharging occurs when water rises above the top of the highest conduit.
  ---------------------------------------------------------------------
                                               Max. Height   Min. Depth
                                   Hours       Above Crown    Below Rim
  Node                 Type      Surcharged           Feet         Feet
  ---------------------------------------------------------------------
  39                   JUNCTION        0.64          0.840       10.160
  40                   JUNCTION        0.64          0.833        0.167
  41                   JUNCTION        6.91          1.977        9.023
  42                   JUNCTION        1.35          0.944        0.056
  43                   JUNCTION        1.91          1.067        9.933
  44                   JUNCTION        1.89          1.000        0.000
  45                   JUNCTION        2.34          1.058        9.942
  46                   JUNCTION        2.26          1.000        0.000
  50                   JUNCTION        0.13          0.241        0.000
  51                   JUNCTION        0.34          0.540        0.000
  52                   JUNCTION        0.83          1.024        0.000
  53                   JUNCTION        1.00          1.215        0.000
  54                   JUNCTION        1.24          1.405        0.000
  55                   JUNCTION        1.77          1.596        0.000
  56                   JUNCTION        3.04          1.787        0.000
  57                   JUNCTION        1.43          0.963        0.000
  58                   JUNCTION        1.52          0.982        0.000
  59                   JUNCTION        1.62          1.000        0.000
  60                   JUNCTION        1.70          1.019        0.000
  61                   JUNCTION        1.79          1.038        0.000
  62                   JUNCTION        1.96          1.031        0.000
  63                   JUNCTION        2.03          1.020        0.000
  64                   JUNCTION        2.10          1.029        0.000
  65                   JUNCTION        2.16          1.039        0.000
  66                   JUNCTION        2.24          1.049        0.000
  67                   JUNCTION        2.15          0.788        0.000
  68                   JUNCTION        2.03          0.577        0.000
  69                   JUNCTION        1.86          0.365        0.000
  70                   JUNCTION        1.55          0.153        0.000
  
  
  *********************
  Node Flooding Summary
  *********************
  
  Flooding refers to all water that overflows a node, whether it ponds or not.
  --------------------------------------------------------------------------
                                                             Total   Maximum
                                 Maximum   Time of Max       Flood    Ponded
                        Hours       Rate    Occurrence      Volume     Depth
  Node                 Flooded       CFS   days hr:min    10^6 gal      Feet
  --------------------------------------------------------------------------
  44                      1.25      0.63      0  04:05       0.012     0.000
  46                      0.39      0.06      0  18:20       0.000     0.000
  
  
  ***********************
  Outfall Loading Summary
  ***********************
  
  -----------------------------------------------------------
                         Flow       Avg       Max       Total
                         Freq      Flow      Flow      Volume
  Outfall Node           Pcnt       CFS       CFS    10^6 gal
  -----------------------------------------------------------
  10                    61.87      0.97      2.79       0.485
  -----------------------------------------------------------
  System                61.87      0.97      2.79       0.485
  
  
  ********************
  Link Flow Summary
  ********************
  
  -----------------------------------------------------------------------------
                                 Maximum  Time of Max   Maximum    Max/    Max/
                                  |Flow|   Occurrence   |Veloc|    Full    Full
  Link                 Type          CFS  days hr:min    ft/sec    Flow   Depth
  -----------------------------------------------------------------------------
  1                    CONDUIT      0.84     0  14:38      2.04    2.97    1.00
  2                    CONDUIT      1.43     0  04:08      7.28   32.21    1.00
  3                    CONDUIT      2.12     0  04:07      2.70    7.52    1.00
  4                    CONDUIT      2.30     0  04:14      2.93    8.16    1.00
  19                   CONDUIT      0.85     0  14:34      2.61    0.39    0.43
  20                   CONDUIT      0.85     0  14:34      2.61    0.39    0.51
  21                   CONDUIT      0.85     0  14:34      2.61    0.39    0.78
  22                   CONDUIT      0.85     0  14:34      2.60    0.39    0.97
  23                   CONDUIT      0.84     0  14:31      2.57    0.38    1.00
  24                   CONDUIT      0.84     0  14:38      2.15    0.38    1.00
  25                   CONDUIT      1.43     0  04:08      2.86    0.65    1.00
  26                   CONDUIT      1.43     0  04:08      2.79    0.65    1.00
  27                   CONDUIT      1.43     0  04:08      2.63    0.65    1.00
  28                   CONDUIT      1.43     0  04:08      2.11    0.65    1.00
  29                   CONDUIT      1.43     0  04:08      1.82    0.65    1.00
  30                   CONDUIT      1.43     0  04:08      1.82    0.65    1.00
  31                   CONDUIT      2.12     0  04:07      3.11    0.97    1.00
  32                   CONDUIT      2.12     0  04:07      3.10    0.97    1.00
  33                   CONDUIT      2.12     0  04:07      3.09    0.97    1.00
  34                   CONDUIT      2.12     0  04:07      3.08    0.97    1.00
  35                   CONDUIT      2.12     0  04:07      2.99    0.97    1.00
  36                   CONDUIT      2.12     0  04:07      2.72    0.97    1.00
  37                   CONDUIT      2.30     0  04:14      3.18    1.05    1.00
  38                   CONDUIT      2.30     0  04:14      3.17    1.05    1.00
  39                   CONDUIT      2.30     0  04:14      3.15    1.05    1.00
  40                   CONDUIT      2.30     0  04:14      3.12    1.05    1.00
  41                   CONDUIT      2.30     0  04:14      3.03    1.05    1.00
  42                   CONDUIT      2.30     0  04:14      2.93    1.05    1.00
  43                   CONDUIT      2.79     0  04:00      3.56    1.28    1.00
  44                   CONDUIT      2.79     0  04:00      3.56    1.28    1.00
  45                   CONDUIT      2.79     0  04:00      3.56    1.28    1.00
  46                   CONDUIT      2.79     0  04:00      3.56    1.28    1.00
  47                   CONDUIT      2.79     0  04:00      3.57    1.28    0.99
  48                   CONDUIT      2.79     0  04:00      3.94    1.28    0.85
  
  
  ***************************
  Flow Classification Summary
  ***************************
  
  -------------------------------------------------------------------------------------
                      Adjusted    ---------- Fraction of Time in Flow Class ---------- 
                       /Actual         Up    Down  Sub   Sup   Up    Down  Norm  Inlet 
  Conduit               Length    Dry  Dry   Dry   Crit  Crit  Crit  Crit  Ltd   Ctrl  
  -------------------------------------------------------------------------------------
  1                       1.00   0.12  0.00  0.00  0.88  0.00  0.00  0.00  0.00  0.00
  2                       1.00   0.12  0.00  0.00  0.05  0.00  0.00  0.83  0.00  0.00
  3                       1.00   0.12  0.00  0.00  0.88  0.00  0.00  0.00  0.00  0.00
  4                       1.00   0.12  0.00  0.00  0.88  0.00  0.00  0.00  0.00  0.00
  19                      1.00   0.12  0.00  0.00  0.88  0.00  0.00  0.00  0.63  0.00
  20                      1.00   0.12  0.00  0.00  0.88  0.00  0.00  0.00  0.63  0.00
  21                      1.00   0.12  0.00  0.00  0.88  0.00  0.00  0.00  0.63  0.00
  22                      1.00   0.12  0.00  0.00  0.88  0.00  0.00  0.00  0.63  0.00
  23                      1.00   0.18  0.01  0.00  0.81  0.00  0.00  0.00  0.63  0.00
  24                      1.00   0.12  0.33  0.00  0.55  0.00  0.00  0.00  0.85  0.00
  25                      1.00   0.12  0.00  0.00  0.88  0.00  0.00  0.00  0.52  0.00
  26                      1.00   0.12  0.00  0.00  0.88  0.00  0.00  0.00  0.38  0.00
  27                      1.00   0.12  0.00  0.00  0.88  0.00  0.00  0.00  0.56  0.00
  28                      1.00   0.12  0.00  0.00  0.88  0.00  0.00  0.00  0.40  0.00
  29                      1.00   0.12  0.26  0.00  0.62  0.00  0.00  0.00  0.61  0.00
  30                      1.00   0.12  0.00  0.00  0.88  0.00  0.00  0.00  0.00  0.00
  31                      1.00   0.12  0.00  0.00  0.88  0.00  0.00  0.00  0.45  0.00
  32                      1.00   0.12  0.00  0.00  0.88  0.00  0.00  0.00  0.57  0.00
  33                      1.00   0.12  0.00  0.00  0.88  0.00  0.00  0.00  0.45  0.00
  34                      1.00   0.12  0.00  0.00  0.88  0.00  0.00  0.00  0.57  0.00
  35                      1.00   0.12  0.00  0.00  0.88  0.00  0.00  0.00  0.44  0.00
  36                      1.00   0.12  0.00  0.00  0.88  0.00  0.00  0.00  0.77  0.00
  37                      1.00   0.12  0.00  0.00  0.88  0.00  0.00  0.00  0.43  0.00
  38                      1.00   0.12  0.00  0.00  0.88  0.00  0.00  0.00  0.55  0.00
  39                      1.00   0.12  0.00  0.00  0.88  0.00  0.00  0.00  0.42  0.00
  40                      1.00   0.12  0.00  0.00  0.88  0.00  0.00  0.00  0.55  0.00
  41                      1.00   0.12  0.00  0.00  0.88  0.00  0.00  0.00  0.40  0.00
  42                      1.00   0.12  0.00  0.00  0.88  0.00  0.00  0.00  0.70  0.00
  43                      1.00   0.12  0.00  0.00  0.88  0.00  0.00  0.00  0.53  0.00
  44                      1.00   0.12  0.00  0.00  0.88  0.00  0.00  0.00  0.41  0.00
  45                      1.00   0.12  0.00  0.00  0.88  0.00  0.00  0.00  0.54  0.00
  46                      1.00   0.12  0.00  0.00  0.88  0.00  0.00  0.00  0.40  0.00
  47                      1.00   0.12  0.00  0.00  0.88  0.00  0.00  0.00  0.53  0.00
  48                      1.00   0.12  0.00  0.00  0.86  0.02  0.00  0.00  0.00  0.00
  
  
  *************************
  Conduit Surcharge Summary
  *************************
  
  ----------------------------------------------------------------------------
                                                           Hours        Hours 
                         --------- Hours Full --------   Above Full   Capacity
  Conduit                Both Ends  Upstream  Dnstream   Normal Flow   Limited
  ----------------------------------------------------------------------------
  1                           0.64      0.64      0.64      5.90         0.64
  2                           1.67      6.91      1.67     13.74         1.67
  3                           1.89      1.91      1.89     10.62         1.89
  4                           2.26      2.34      2.26     11.75         2.26
  22                          0.01      0.01      0.13      0.01         0.01
  23                          0.13      0.13      0.34      0.01         0.01
  24                          0.34      0.34      0.64      0.01         0.01
  25                          0.64      0.64      0.83      0.01         0.01
  26                          0.83      0.83      1.00      0.01         0.01
  27                          1.00      1.00      1.24      0.01         0.01
  28                          1.24      1.24      1.77      0.01         0.01
  29                          1.77      1.77      3.04      0.01         0.01
  30                          3.04      3.04      6.91      0.01         0.01
  31                          1.35      1.35      1.43      0.01         0.01
  32                          1.43      1.43      1.52      0.01         0.01
  33                          1.52      1.52      1.62      0.01         0.01
  34                          1.62      1.62      1.70      0.01         0.01
  35                          1.70      1.70      1.79      0.01         0.01
  36                          1.79      1.79      1.91      0.01         0.01
  37                          1.89      1.89      1.96      0.82         0.82
  38                          1.96      1.96      2.03      0.82         0.82
  39                          2.03      2.03      2.10      0.82         0.82
  40                          2.10      2.10      2.16      0.82         0.82
  41                          2.16      2.16      2.24      0.82         0.82
  42                          2.24      2.24      2.34      0.83         0.83
  43                          2.15      2.26      2.15      2.74         2.15
  44                          2.03      2.15      2.03      2.75         2.03
  45                          1.86      2.03      1.86      2.75         1.86
  46                          1.55      1.86      1.55      2.75         1.55
  47                          0.01      1.55      0.01      2.75         0.01
  48                          0.01      0.01      0.01      2.75         0.01
  

  Analysis begun on:  Wed Mar 19 17:55:15 2025
  Analysis ended on:  Wed Mar 19 17:55:24 2025
  Total elapsed time: 00:00:09