
  OWA STORM WATER MANAGEMENT MODEL - VERSION v5.2.3 (OWA 2023-03-28)
  ------------------------------------------------------------


  Analysis begun on:  Mon Apr 29 16:26:17 2024
  Analysis ended on:  Mon Apr 29 16:26:17 2024
  Total elapsed time: < 1 sec