
  EPA STORM WATER MANAGEMENT MODEL - VERSION 5.2 (Build 5.2.3)
  ------------------------------------------------------------

  
  ****************
  Analysis Options
  ****************
  Flow Units ............... CFS
  Process Models:
    Rainfall/Runoff ........ NO
    RDII ................... NO
    Snowmelt ............... NO
    Groundwater ............ NO
    Flow Routing ........... YES
    Ponding Allowed ........ NO
    Water Quality .......... NO
  Flow Routing Method ...... DYNWAVE
  Surcharge Method ......... EXTRAN
  Starting Date ............ 01/01/2020 00:00:00
  Ending Date .............. 01/01/2020 06:00:00
  Antecedent Dry Days ...... 0.0
  Report Time Step ......... 00:00:10
  Routing Time Step ........ 1.00 sec
  Variable Time Step ....... YES
  Maximum Trials ........... 8
  Number of Threads ........ 1
  Head Tolerance ........... 0.005000 ft
  
  
  **************************        Volume        Volume
  Flow Routing Continuity        acre-feet      10^6 gal
  **************************     ---------     ---------
  Dry Weather Inflow .......         0.000         0.000
  Wet Weather Inflow .......         0.000         0.000
  Groundwater Inflow .......         0.000         0.000
  RDII Inflow ..............         0.000         0.000
  External Inflow ..........         0.031         0.010
  External Outflow .........         0.031         0.010
  Flooding Loss ............         0.000         0.000
  Evaporation Loss .........         0.000         0.000
  Exfiltration Loss ........         0.000         0.000
  Initial Stored Volume ....         0.000         0.000
  Final Stored Volume ......         0.000         0.000
  Continuity Error (%) .....         0.000
  
  
  *************************
  Highest Continuity Errors
  *************************
  Node 25 (2.46%)
  Node 52 (1.25%)
  
  
  ***************************
  Time-Step Critical Elements
  ***************************
  None
  
  
  ********************************
  Highest Flow Instability Indexes
  ********************************
  All links are stable.
  
  
  *********************************
  Most Frequent Nonconverging Nodes
  *********************************
  Convergence obtained at all time steps.
  
  
  *************************
  Routing Time Step Summary
  *************************
  Minimum Time Step           :     0.50 sec
  Average Time Step           :     1.00 sec
  Maximum Time Step           :     1.00 sec
  % of Time in Steady State   :     0.00
  Average Iterations per Step :     2.00
  % of Steps Not Converging   :     0.00
  Time Step Frequencies       :
      1.000 -  0.871 sec      :   100.00 %
      0.871 -  0.758 sec      :     0.00 %
      0.758 -  0.660 sec      :     0.00 %
      0.660 -  0.574 sec      :     0.00 %
      0.574 -  0.500 sec      :     0.00 %
  
  
  ******************
  Node Depth Summary
  ******************
  
  ---------------------------------------------------------------------------------
                                 Average  Maximum  Maximum  Time of Max    Reported
                                   Depth    Depth      HGL   Occurrence   Max Depth
  Node                 Type         Feet     Feet     Feet  days hr:min        Feet
  ---------------------------------------------------------------------------------
  1                    JUNCTION     0.01     0.16    40.16     0  00:15        0.16
  2                    JUNCTION     0.01     0.16    36.16     0  00:16        0.16
  3                    JUNCTION     0.01     0.16    32.16     0  00:18        0.16
  4                    JUNCTION     0.01     0.16    28.16     0  00:19        0.16
  5                    JUNCTION     0.01     0.15    24.15     0  00:21        0.15
  6                    JUNCTION     0.01     0.15    20.15     0  00:22        0.15
  7                    JUNCTION     0.01     0.15    16.15     0  00:24        0.15
  8                    JUNCTION     0.01     0.15    12.15     0  00:26        0.15
  9                    JUNCTION     0.01     0.15     8.15     0  00:28        0.15
  10                   JUNCTION     0.02     0.14     4.14     0  00:31        0.14
  12                   JUNCTION     0.01     0.16    40.16     0  00:15        0.16
  13                   JUNCTION     0.01     0.16    36.16     0  00:16        0.16
  14                   JUNCTION     0.01     0.16    32.16     0  00:18        0.16
  15                   JUNCTION     0.01     0.16    28.16     0  00:19        0.16
  16                   JUNCTION     0.01     0.15    24.15     0  00:21        0.15
  17                   JUNCTION     0.01     0.15    20.15     0  00:22        0.15
  18                   JUNCTION     0.01     0.15    16.15     0  00:24        0.15
  19                   JUNCTION     0.01     0.15    12.15     0  00:26        0.15
  20                   JUNCTION     0.01     0.15     8.15     0  00:28        0.15
  21                   JUNCTION     0.02     0.14     4.14     0  00:31        0.14
  23                   JUNCTION     0.01     0.16    40.16     0  00:16        0.16
  24                   JUNCTION     0.02     0.15    26.85     0  00:22        0.15
  25                   JUNCTION     0.02     0.12    13.42     0  00:29        0.12
  27                   JUNCTION     0.01     0.16    40.16     0  00:15        0.16
  28                   JUNCTION     0.01     0.16    38.16     0  00:15        0.16
  29                   JUNCTION     0.01     0.16    36.16     0  00:16        0.16
  30                   JUNCTION     0.01     0.16    34.16     0  00:17        0.16
  31                   JUNCTION     0.01     0.16    32.16     0  00:18        0.16
  32                   JUNCTION     0.01     0.16    30.16     0  00:18        0.16
  33                   JUNCTION     0.01     0.16    28.16     0  00:19        0.16
  34                   JUNCTION     0.01     0.16    26.16     0  00:20        0.16
  35                   JUNCTION     0.01     0.16    24.16     0  00:21        0.16
  36                   JUNCTION     0.01     0.16    22.16     0  00:21        0.16
  37                   JUNCTION     0.01     0.15    20.15     0  00:22        0.15
  38                   JUNCTION     0.01     0.15    18.15     0  00:22        0.15
  39                   JUNCTION     0.01     0.15    16.15     0  00:23        0.15
  40                   JUNCTION     0.01     0.16    14.16     0  00:23        0.16
  41                   JUNCTION     0.01     0.16    12.16     0  00:24        0.16
  42                   JUNCTION     0.01     0.16    10.16     0  00:25        0.16
  43                   JUNCTION     0.01     0.16     8.16     0  00:26        0.16
  44                   JUNCTION     0.01     0.16     6.16     0  00:27        0.16
  45                   JUNCTION     0.01     0.16     4.16     0  00:28        0.16
  46                   JUNCTION     0.01     0.15     2.15     0  00:30        0.15
  48                   JUNCTION     0.01     0.18    40.18     0  00:16        0.18
  49                   JUNCTION     0.01     0.14    35.14     0  00:18        0.14
  50                   JUNCTION     0.01     0.15    24.15     0  00:22        0.15
  51                   JUNCTION     0.01     0.15    16.15     0  00:26        0.15
  52                   JUNCTION     0.02     0.13     8.13     0  00:31        0.13
  54                   JUNCTION     0.01     0.11    40.11     0  00:15        0.11
  55                   JUNCTION     0.01     0.11    20.11     0  00:16        0.11
  11                   OUTFALL      0.01     0.14     0.14     0  00:31        0.14
  22                   OUTFALL      0.01     0.14     0.14     0  00:31        0.14
  26                   OUTFALL      0.01     0.12     0.12     0  00:29        0.12
  47                   OUTFALL      0.01     0.15     0.15     0  00:30        0.15
  53                   OUTFALL      0.01     0.13     0.13     0  00:31        0.13
  56                   OUTFALL      0.01     0.11     0.11     0  00:16        0.11
  
  
  *******************
  Node Inflow Summary
  *******************
  
  -------------------------------------------------------------------------------------------------
                                  Maximum  Maximum                  Lateral       Total        Flow
                                  Lateral    Total  Time of Max      Inflow      Inflow     Balance
                                   Inflow   Inflow   Occurrence      Volume      Volume       Error
  Node                 Type           CFS      CFS  days hr:min    10^6 gal    10^6 gal     Percent
  -------------------------------------------------------------------------------------------------
  1                    JUNCTION      0.25     0.25     0  00:15     0.00168     0.00168      -0.657
  2                    JUNCTION      0.00     0.25     0  00:15           0     0.00169       0.077
  3                    JUNCTION      0.00     0.25     0  00:17           0     0.00169       0.024
  4                    JUNCTION      0.00     0.24     0  00:18           0     0.00169       0.008
  5                    JUNCTION      0.00     0.24     0  00:19           0     0.00169       0.003
  6                    JUNCTION      0.00     0.24     0  00:21           0     0.00169       0.001
  7                    JUNCTION      0.00     0.23     0  00:23           0     0.00169       0.002
  8                    JUNCTION      0.00     0.23     0  00:25           0     0.00169       0.003
  9                    JUNCTION      0.00     0.22     0  00:27           0     0.00169      -0.019
  10                   JUNCTION      0.00     0.22     0  00:29           0     0.00169       0.572
  12                   JUNCTION      0.25     0.25     0  00:15     0.00168     0.00168      -0.657
  13                   JUNCTION      0.00     0.25     0  00:15           0     0.00169       0.077
  14                   JUNCTION      0.00     0.25     0  00:17           0     0.00169       0.024
  15                   JUNCTION      0.00     0.24     0  00:18           0     0.00169       0.008
  16                   JUNCTION      0.00     0.24     0  00:19           0     0.00169       0.003
  17                   JUNCTION      0.00     0.24     0  00:21           0     0.00169       0.001
  18                   JUNCTION      0.00     0.23     0  00:23           0     0.00169       0.002
  19                   JUNCTION      0.00     0.23     0  00:25           0     0.00169       0.003
  20                   JUNCTION      0.00     0.22     0  00:27           0     0.00169      -0.019
  21                   JUNCTION      0.00     0.22     0  00:29           0     0.00169       0.572
  23                   JUNCTION      0.25     0.25     0  00:15     0.00168     0.00168      -3.425
  24                   JUNCTION      0.00     0.25     0  00:17           0     0.00174       1.005
  25                   JUNCTION      0.00     0.19     0  00:23           0     0.00173       2.520
  27                   JUNCTION      0.25     0.25     0  00:15     0.00168     0.00168      -0.207
  28                   JUNCTION      0.00     0.25     0  00:15           0     0.00169       0.020
  29                   JUNCTION      0.00     0.25     0  00:16           0     0.00169       0.003
  30                   JUNCTION      0.00     0.25     0  00:16           0     0.00169      -0.003
  31                   JUNCTION      0.00     0.25     0  00:17           0     0.00169      -0.005
  32                   JUNCTION      0.00     0.25     0  00:18           0     0.00169      -0.007
  33                   JUNCTION      0.00     0.25     0  00:18           0     0.00169      -0.008
  34                   JUNCTION      0.00     0.24     0  00:19           0     0.00169      -0.008
  35                   JUNCTION      0.00     0.24     0  00:20           0     0.00169      -0.008
  36                   JUNCTION      0.00     0.24     0  00:21           0     0.00169      -0.008
  37                   JUNCTION      0.00     0.24     0  00:21           0     0.00169      -0.007
  38                   JUNCTION      0.00     0.24     0  00:22           0     0.00169      -0.007
  39                   JUNCTION      0.00     0.24     0  00:22           0     0.00169      -0.006
  40                   JUNCTION      0.00     0.24     0  00:23           0     0.00169      -0.006
  41                   JUNCTION      0.00     0.24     0  00:24           0     0.00169      -0.005
  42                   JUNCTION      0.00     0.24     0  00:25           0     0.00169      -0.004
  43                   JUNCTION      0.00     0.24     0  00:26           0     0.00169      -0.003
  44                   JUNCTION      0.00     0.24     0  00:27           0     0.00169      -0.003
  45                   JUNCTION      0.00     0.24     0  00:28           0     0.00169      -0.019
  46                   JUNCTION      0.00     0.24     0  00:29           0     0.00169       0.282
  48                   JUNCTION      0.25     0.25     0  00:15     0.00168     0.00168      -1.744
  49                   JUNCTION      0.00     0.25     0  00:16           0     0.00171       0.332
  50                   JUNCTION      0.00     0.24     0  00:19           0     0.00171       0.060
  51                   JUNCTION      0.00     0.22     0  00:23           0     0.00171       0.114
  52                   JUNCTION      0.00     0.19     0  00:27           0      0.0017       1.266
  54                   JUNCTION      0.25     0.25     0  00:15     0.00168     0.00168      -0.292
  55                   JUNCTION      0.00     0.25     0  00:15           0     0.00169       0.309
  11                   OUTFALL       0.00     0.20     0  00:31           0     0.00168       0.000
  22                   OUTFALL       0.00     0.20     0  00:31           0     0.00168       0.000
  26                   OUTFALL       0.00     0.14     0  00:29           0     0.00168       0.000
  47                   OUTFALL       0.00     0.23     0  00:30           0     0.00168       0.000
  53                   OUTFALL       0.00     0.17     0  00:31           0     0.00168       0.000
  56                   OUTFALL       0.00     0.25     0  00:16           0     0.00168       0.000
  
  
  **********************
  Node Surcharge Summary
  **********************
  
  No nodes were surcharged.
  
  
  *********************
  Node Flooding Summary
  *********************
  
  No nodes were flooded.
  
  
  ***********************
  Outfall Loading Summary
  ***********************
  
  -----------------------------------------------------------
                         Flow       Avg       Max       Total
                         Freq      Flow      Flow      Volume
  Outfall Node           Pcnt       CFS       CFS    10^6 gal
  -----------------------------------------------------------
  11                    26.95      0.04      0.20       0.002
  22                    26.95      0.04      0.20       0.002
  26                    35.11      0.03      0.14       0.002
  47                    24.10      0.04      0.23       0.002
  53                    31.11      0.03      0.17       0.002
  56                    10.08      0.10      0.25       0.002
  -----------------------------------------------------------
  System                25.72      0.29      0.96       0.010
  
  
  ********************
  Link Flow Summary
  ********************
  
  -----------------------------------------------------------------------------
                                 Maximum  Time of Max   Maximum    Max/    Max/
                                  |Flow|   Occurrence   |Veloc|    Full    Full
  Link                 Type          CFS  days hr:min    ft/sec    Flow   Depth
  -----------------------------------------------------------------------------
  1                    CONDUIT      0.25     0  00:15      3.17    0.05    0.16
  2                    CONDUIT      0.25     0  00:17      3.15    0.05    0.16
  3                    CONDUIT      0.24     0  00:18      3.15    0.05    0.16
  4                    CONDUIT      0.24     0  00:19      3.18    0.05    0.15
  5                    CONDUIT      0.24     0  00:21      3.21    0.05    0.15
  6                    CONDUIT      0.23     0  00:23      3.23    0.05    0.15
  7                    CONDUIT      0.23     0  00:25      3.24    0.05    0.15
  8                    CONDUIT      0.22     0  00:27      3.24    0.05    0.15
  9                    CONDUIT      0.22     0  00:29      3.33    0.05    0.14
  10                   CONDUIT      0.20     0  00:31      2.96    0.04    0.14
  11                   CONDUIT      0.25     0  00:15      3.17    0.05    0.16
  12                   CONDUIT      0.25     0  00:17      3.15    0.05    0.16
  13                   CONDUIT      0.24     0  00:18      3.15    0.05    0.16
  14                   CONDUIT      0.24     0  00:19      3.18    0.05    0.15
  15                   CONDUIT      0.24     0  00:21      3.21    0.05    0.15
  16                   CONDUIT      0.23     0  00:23      3.23    0.05    0.15
  17                   CONDUIT      0.23     0  00:25      3.24    0.05    0.15
  18                   CONDUIT      0.22     0  00:27      3.24    0.05    0.15
  19                   CONDUIT      0.22     0  00:29      3.33    0.05    0.14
  20                   CONDUIT      0.20     0  00:31      2.96    0.04    0.14
  21                   CONDUIT      0.25     0  00:17      3.75    0.05    0.15
  22                   CONDUIT      0.19     0  00:23      3.57    0.04    0.13
  23                   CONDUIT      0.14     0  00:29      2.66    0.03    0.12
  24                   CONDUIT      0.25     0  00:15      3.15    0.05    0.16
  25                   CONDUIT      0.25     0  00:16      3.15    0.05    0.16
  26                   CONDUIT      0.25     0  00:16      3.14    0.05    0.16
  27                   CONDUIT      0.25     0  00:17      3.14    0.05    0.16
  28                   CONDUIT      0.25     0  00:18      3.14    0.05    0.16
  29                   CONDUIT      0.25     0  00:18      3.13    0.05    0.16
  30                   CONDUIT      0.24     0  00:19      3.13    0.05    0.16
  31                   CONDUIT      0.24     0  00:20      3.13    0.05    0.16
  32                   CONDUIT      0.24     0  00:21      3.12    0.05    0.16
  33                   CONDUIT      0.24     0  00:21      3.12    0.05    0.15
  34                   CONDUIT      0.24     0  00:22      3.12    0.05    0.15
  35                   CONDUIT      0.24     0  00:22      3.16    0.05    0.15
  36                   CONDUIT      0.24     0  00:23      3.19    0.05    0.16
  37                   CONDUIT      0.24     0  00:24      3.21    0.05    0.16
  38                   CONDUIT      0.24     0  00:25      3.24    0.05    0.16
  39                   CONDUIT      0.24     0  00:26      3.25    0.05    0.16
  40                   CONDUIT      0.24     0  00:27      3.27    0.05    0.16
  41                   CONDUIT      0.24     0  00:28      3.27    0.05    0.16
  42                   CONDUIT      0.24     0  00:29      3.37    0.05    0.15
  43                   CONDUIT      0.23     0  00:30      3.08    0.05    0.15
  44                   CONDUIT      0.25     0  00:16      3.09    0.07    0.16
  45                   CONDUIT      0.24     0  00:19      3.69    0.04    0.14
  46                   CONDUIT      0.22     0  00:23      3.37    0.05    0.14
  47                   CONDUIT      0.19     0  00:27      3.37    0.04    0.13
  48                   CONDUIT      0.17     0  00:31      2.79    0.04    0.13
  49                   CONDUIT      0.25     0  00:15      5.54    0.02    0.11
  50                   CONDUIT      0.25     0  00:16      5.51    0.02    0.11
  
  
  ***************************
  Flow Classification Summary
  ***************************
  
  -------------------------------------------------------------------------------------
                      Adjusted    ---------- Fraction of Time in Flow Class ---------- 
                       /Actual         Up    Down  Sub   Sup   Up    Down  Norm  Inlet 
  Conduit               Length    Dry  Dry   Dry   Crit  Crit  Crit  Crit  Ltd   Ctrl  
  -------------------------------------------------------------------------------------
  1                       1.00   0.00  0.00  0.00  0.92  0.08  0.00  0.00  0.95  0.00
  2                       1.00   0.00  0.00  0.00  0.91  0.09  0.00  0.00  0.95  0.00
  3                       1.00   0.01  0.00  0.00  0.89  0.10  0.00  0.00  0.95  0.00
  4                       1.00   0.01  0.00  0.00  0.86  0.13  0.00  0.00  0.94  0.00
  5                       1.00   0.02  0.00  0.00  0.82  0.17  0.00  0.00  0.94  0.00
  6                       1.00   0.02  0.00  0.00  0.79  0.19  0.00  0.00  0.93  0.00
  7                       1.00   0.03  0.00  0.00  0.77  0.20  0.00  0.00  0.93  0.00
  8                       1.00   0.04  0.00  0.00  0.74  0.22  0.00  0.00  0.92  0.00
  9                       1.00   0.04  0.00  0.00  0.74  0.22  0.00  0.00  0.91  0.00
  10                      1.00   0.05  0.00  0.00  0.57  0.38  0.00  0.00  0.09  0.00
  11                      1.00   0.00  0.00  0.00  0.92  0.08  0.00  0.00  0.95  0.00
  12                      1.00   0.00  0.00  0.00  0.91  0.09  0.00  0.00  0.95  0.00
  13                      1.00   0.01  0.00  0.00  0.89  0.10  0.00  0.00  0.95  0.00
  14                      1.00   0.01  0.00  0.00  0.86  0.13  0.00  0.00  0.94  0.00
  15                      1.00   0.02  0.00  0.00  0.82  0.17  0.00  0.00  0.94  0.00
  16                      1.00   0.02  0.00  0.00  0.79  0.19  0.00  0.00  0.93  0.00
  17                      1.00   0.03  0.00  0.00  0.77  0.20  0.00  0.00  0.93  0.00
  18                      1.00   0.04  0.00  0.00  0.74  0.22  0.00  0.00  0.92  0.00
  19                      1.00   0.04  0.00  0.00  0.74  0.22  0.00  0.00  0.91  0.00
  20                      1.00   0.05  0.00  0.00  0.57  0.38  0.00  0.00  0.09  0.00
  21                      1.00   0.42  0.17  0.00  0.33  0.08  0.00  0.00  0.94  0.00
  22                      1.00   0.00  0.42  0.00  0.46  0.12  0.00  0.00  0.92  0.00
  23                      1.00   0.01  0.00  0.00  0.39  0.60  0.00  0.00  0.11  0.00
  24                      1.00   0.00  0.00  0.00  0.92  0.08  0.00  0.00  0.96  0.00
  25                      1.00   0.00  0.00  0.00  0.92  0.08  0.00  0.00  0.95  0.00
  26                      1.00   0.00  0.00  0.00  0.91  0.09  0.00  0.00  0.95  0.00
  27                      1.00   0.01  0.00  0.00  0.89  0.10  0.00  0.00  0.95  0.00
  28                      1.00   0.01  0.00  0.00  0.87  0.12  0.00  0.00  0.95  0.00
  29                      1.00   0.02  0.00  0.00  0.86  0.13  0.00  0.00  0.95  0.00
  30                      1.00   0.02  0.00  0.00  0.85  0.13  0.00  0.00  0.94  0.00
  31                      1.00   0.02  0.00  0.00  0.83  0.14  0.00  0.00  0.94  0.00
  32                      1.00   0.03  0.00  0.00  0.82  0.15  0.00  0.00  0.94  0.00
  33                      1.00   0.03  0.00  0.00  0.81  0.16  0.00  0.00  0.94  0.00
  34                      1.00   0.04  0.00  0.00  0.80  0.17  0.00  0.00  0.94  0.00
  35                      1.00   0.04  0.00  0.00  0.78  0.18  0.00  0.00  0.94  0.00
  36                      1.00   0.04  0.00  0.00  0.77  0.18  0.00  0.00  0.93  0.00
  37                      1.00   0.05  0.00  0.00  0.76  0.19  0.00  0.00  0.93  0.00
  38                      1.00   0.05  0.00  0.00  0.75  0.20  0.00  0.00  0.93  0.00
  39                      1.00   0.05  0.00  0.00  0.74  0.21  0.00  0.00  0.93  0.00
  40                      1.00   0.06  0.00  0.00  0.73  0.22  0.00  0.00  0.92  0.00
  41                      1.00   0.06  0.00  0.00  0.72  0.22  0.00  0.00  0.92  0.00
  42                      1.00   0.06  0.56  0.00  0.17  0.21  0.00  0.00  0.92  0.00
  43                      1.00   0.07  0.00  0.00  0.59  0.35  0.00  0.00  0.09  0.00
  44                      1.00   0.00  0.00  0.00  0.92  0.08  0.00  0.00  0.93  0.00
  45                      1.00   0.57  0.08  0.00  0.25  0.10  0.00  0.00  0.94  0.00
  46                      1.00   0.50  0.07  0.00  0.30  0.12  0.00  0.00  0.93  0.00
  47                      1.00   0.01  0.50  0.00  0.30  0.19  0.00  0.00  0.91  0.00
  48                      1.00   0.02  0.00  0.00  0.49  0.48  0.00  0.00  0.10  0.00
  49                      1.00   0.00  0.00  0.00  0.91  0.09  0.00  0.00  0.96  0.00
  50                      1.00   0.00  0.00  0.00  0.87  0.12  0.00  0.00  0.03  0.00
  
  
  *************************
  Conduit Surcharge Summary
  *************************
  
  No conduits were surcharged.
  

  Analysis begun on:  Sat Mar  1 12:07:35 2025
  Analysis ended on:  Sat Mar  1 12:07:36 2025
  Total elapsed time: 00:00:01